version 2
run RIMac-0-20190828-16:26:23-17976
attr configname RIMac
attr datetime 20190828-16:26:23
attr experiment RIMac
attr inifile omnetpp.ini
attr iterationvars ""
attr iterationvarsf ""
attr measurement ""
attr network SensorNetworkShowcaseA
attr processid 17976
attr repetition 0
attr replication #0
attr resultdir results
attr runnumber 0
attr seedset 0
param **.wlan[*].mac.typename "\"RIMac\""
param *.gateway.wlan[*].mac.slotDuration 320us
param *.sensor*.wlan[*].mac.slotDuration 320us
param **.wlan[*].mac.maxTransmissions 5
param **.wlan[*].typename "\"WirelessInterface\""
param **.wlan[*].radio.typename "\"UnitDiskRadio\""
param **.wlan[*].radio.transmitter.communicationRange 180m
param **.arp.typename "\"GlobalArp\""
param *.gateway.forwarding true
param *.configurator.addStaticRoutes false
param *.configurator.config "xmldoc(\"config.xml\")"
param **.radio.carrierFrequency 2.45GHz
param **.radio.bandwidth 2.8MHz
param **.radio.transmitter.bitrate "250000 bps"
param **.radio.transmitter.headerLength 48b
param **.radio.transmitter.preambleDuration 0.000192s
param **.radio.transmitter.power 2.24mW
param **.radio.receiver.energyDetection -90dBm
param **.radio.receiver.sensitivity -100dBm
param **.radio.receiver.snirThreshold -8dB
param *.radioMedium.backgroundNoise.power -110dBm
param **.mac.headerLength 8b
param *.sensor*.numApps 1
param *.sensor*.app[0].typename "\"UdpBasicApp\""
param *.sensor*.app[0].destAddresses "\"server\""
param *.sensor*.app[0].destPort 1000
param *.sensor*.app[0].sendInterval exponential(1s)
param *.sensor*.app[0].messageLength 10Byte
param *.server.numApps 1
param *.server.app[0].typename "\"UdpSink\""
param *.server.app[0].localPort 1000
param *.visualizer.*.routingTableVisualizer.displayRoutingTables false
param *.visualizer.*.routingTableVisualizer.displayRoutesIndividually false
param *.visualizer.*.routingTableVisualizer.lineShift 0
param *.visualizer.*.routingTableVisualizer.displayLabels false
param *.visualizer.*.infoVisualizer.modules "\"*.server.app[0]\""
param *.visualizer.*.infoVisualizer.format "\"%t\""
param *.visualizer.*.networkRouteVisualizer.displayRoutes true
param *.visualizer.*.physicalLinkVisualizer.displayLinks true

vector 0 SensorNetworkShowcaseA.gateway.energyStorage powerConsumption:vector ETV
attr interpolationmode sample-hold
attr source powerConsumptionChanged
attr title "Power consumption, vector"
vector 1 SensorNetworkShowcaseA.sensor1.energyStorage powerConsumption:vector ETV
attr interpolationmode sample-hold
attr source powerConsumptionChanged
attr title "Power consumption, vector"
vector 2 SensorNetworkShowcaseA.sensor2.energyStorage powerConsumption:vector ETV
attr interpolationmode sample-hold
attr source powerConsumptionChanged
attr title "Power consumption, vector"
vector 3 SensorNetworkShowcaseA.gateway.wlan[0].radio radioMode:vector ETV
attr interpolationmode sample-hold
attr source radioModeChanged
attr title "Radio mode, vector"
vector 4 SensorNetworkShowcaseA.gateway.wlan[0].radio.energyConsumer powerConsumption:vector ETV
attr interpolationmode sample-hold
attr source powerConsumptionChanged
attr title "Power consumption, vector"
vector 5 SensorNetworkShowcaseA.sensor1.wlan[0].radio radioMode:vector ETV
attr interpolationmode sample-hold
attr source radioModeChanged
attr title "Radio mode, vector"
vector 6 SensorNetworkShowcaseA.sensor1.wlan[0].radio.energyConsumer powerConsumption:vector ETV
attr interpolationmode sample-hold
attr source powerConsumptionChanged
attr title "Power consumption, vector"
vector 7 SensorNetworkShowcaseA.sensor2.wlan[0].radio radioMode:vector ETV
attr interpolationmode sample-hold
attr source radioModeChanged
attr title "Radio mode, vector"
vector 8 SensorNetworkShowcaseA.sensor2.wlan[0].radio.energyConsumer powerConsumption:vector ETV
attr interpolationmode sample-hold
attr source powerConsumptionChanged
attr title "Power consumption, vector"
vector 9 SensorNetworkShowcaseA.sensor2.energyStorage residualEnergyCapacity:vector ETV
attr interpolationmode linear
attr source residualEnergyCapacityChanged
attr title "Residual energy capacity, vector"
vector 10 SensorNetworkShowcaseA.sensor2.wlan[0].radio receptionState:vector ETV
attr interpolationmode sample-hold
attr source receptionStateChanged
attr title "Radio reception state, vector"
vector 11 SensorNetworkShowcaseA.sensor2.wlan[0].radio transmissionState:vector ETV
attr interpolationmode sample-hold
attr source transmissionStateChanged
attr title "Radio transmission state, vector"
vector 12 SensorNetworkShowcaseA.gateway.energyStorage residualEnergyCapacity:vector ETV
attr interpolationmode linear
attr source residualEnergyCapacityChanged
attr title "Residual energy capacity, vector"
vector 13 SensorNetworkShowcaseA.gateway.wlan[0].radio receptionState:vector ETV
attr interpolationmode sample-hold
attr source receptionStateChanged
attr title "Radio reception state, vector"
vector 14 SensorNetworkShowcaseA.gateway.wlan[0].radio transmissionState:vector ETV
attr interpolationmode sample-hold
attr source transmissionStateChanged
attr title "Radio transmission state, vector"
vector 15 SensorNetworkShowcaseA.sensor1.energyStorage residualEnergyCapacity:vector ETV
attr interpolationmode linear
attr source residualEnergyCapacityChanged
attr title "Residual energy capacity, vector"
vector 16 SensorNetworkShowcaseA.sensor1.wlan[0].radio receptionState:vector ETV
attr interpolationmode sample-hold
attr source receptionStateChanged
attr title "Radio reception state, vector"
vector 17 SensorNetworkShowcaseA.sensor1.wlan[0].radio transmissionState:vector ETV
attr interpolationmode sample-hold
attr source transmissionStateChanged
attr title "Radio transmission state, vector"
vector 18 SensorNetworkShowcaseA.sensor1.app[0] packetSent:vector(packetBytes) ETV
attr interpolationmode none
attr source packetSent
attr title "packets sent, vector(packetBytes)"
vector 19 SensorNetworkShowcaseA.sensor1.udp packetSent:vector(packetBytes) ETV
attr interpolationmode none
attr source packetSent
attr title "packets sent, vector(packetBytes)"
vector 20 SensorNetworkShowcaseA.sensor1.wlan[0].mac.queue queueLength:vector ETV
attr interpolationmode sample-hold
attr source "count(packetPushed) - count(packetPopped) - count(packetRemoved) - count(packetDropped)"
attr title "queue length, vector"
vector 21 SensorNetworkShowcaseA.sensor2.app[0] packetSent:vector(packetBytes) ETV
attr interpolationmode none
attr source packetSent
attr title "packets sent, vector(packetBytes)"
vector 22 SensorNetworkShowcaseA.sensor2.udp packetSent:vector(packetBytes) ETV
attr interpolationmode none
attr source packetSent
attr title "packets sent, vector(packetBytes)"
vector 23 SensorNetworkShowcaseA.sensor2.wlan[0].mac.queue queueLength:vector ETV
attr interpolationmode sample-hold
attr source "count(packetPushed) - count(packetPopped) - count(packetRemoved) - count(packetDropped)"
attr title "queue length, vector"
vector 24 SensorNetworkShowcaseA.sensor2.wlan[0].mac.queue queueingTime:vector ETV
attr interpolationmode none
attr source queueingTime(packetPopped)
attr title "queueing times, vector"
attr unit s
vector 25 SensorNetworkShowcaseA.gateway.eth[0].encap encapPk:vector(packetBytes) ETV
attr interpolationmode none
attr source encapPk
attr title "packets encapsulated, vector(packetBytes)"
vector 26 SensorNetworkShowcaseA.gateway.eth[0].mac packetReceivedFromUpper:vector(packetBytes) ETV
attr interpolationmode none
attr source packetReceivedFromUpper
attr title "packet bytes from higher layer, vector(packetBytes)"
vector 27 SensorNetworkShowcaseA.gateway.eth[0].mac.queue queueLength:vector ETV
attr interpolationmode sample-hold
attr source "count(packetPushed) - count(packetPopped) - count(packetRemoved) - count(packetDropped)"
attr title "queue length, vector"
vector 28 SensorNetworkShowcaseA.gateway.eth[0].mac.queue queueingTime:vector ETV
attr interpolationmode none
attr source queueingTime(packetPopped)
attr title "queueing times, vector"
attr unit s
vector 29 SensorNetworkShowcaseA.gateway.eth[0].mac txPk:vector(packetBytes) ETV
attr interpolationmode none
attr source packetSentToLower
attr title "packets transmitted, vector(packetBytes)"
vector 30 SensorNetworkShowcaseA.server.eth[0].mac rxPkOk:vector(packetBytes) ETV
attr interpolationmode none
attr source rxPkOk
attr title "packets received OK, vector(packetBytes)"
vector 31 SensorNetworkShowcaseA.server.eth[0].mac passedUpPk:vector(packetBytes) ETV
attr interpolationmode none
attr source packetSentToUpper
attr title "packets passed to higher layer, vector(packetBytes)"
vector 32 SensorNetworkShowcaseA.server.eth[0].encap decapPk:vector(packetBytes) ETV
attr interpolationmode none
attr source decapPk
attr title "packets decapsulated, vector(packetBytes)"
vector 33 SensorNetworkShowcaseA.server.udp packetReceived:vector(packetBytes) ETV
attr interpolationmode none
attr source packetReceived
attr title "packets received, vector(packetBytes)"
vector 34 SensorNetworkShowcaseA.server.udp passedUpPk:vector(count) ETV
attr interpolationmode none
attr source packetSentToUpper
attr title "packets passed up, vector(count)"
vector 35 SensorNetworkShowcaseA.server.app[0] packetReceived:vector(packetBytes) ETV
attr interpolationmode none
attr source packetReceived
attr title "packets received, vector(packetBytes)"
vector 36 SensorNetworkShowcaseA.server.app[0] throughput:vector ETV
attr source throughput(packetReceived)
attr title "throughput, vector"
attr unit bps
vector 37 SensorNetworkShowcaseA.server.app[0] endToEndDelay:vector ETV
attr interpolationmode none
attr source dataAge(packetReceived)
attr title "end-to-end delay, vector"
attr unit s
vector 38 SensorNetworkShowcaseA.server.app[0] rcvdPkSeqNo:vector ETV
attr interpolationmode none
attr source appPkSeqNo(packetReceived)
attr title "received packet sequence number, vector"
vector 39 SensorNetworkShowcaseA.sensor1.wlan[0].mac.queue queueingTime:vector ETV
attr interpolationmode none
attr source queueingTime(packetPopped)
attr title "queueing times, vector"
attr unit s
0	0	0	0
0	0	0	0
0	0	0	0
0	1	0	1e-06
0	21	0.384381708223	0
0	21	0.384381708223	5e-06
0	23	0.384701708223	0
0	23	0.384701708223	0
0	23	0.384701708223	0.005
0	25	0.384893708223	0
0	25	0.384893708223	0.075
0	28	0.385309708223	0.005
0	28	0.385309708223	0.005
0	32	0.385501708223	0
0	32	0.385501708223	5e-06
0	32	0.385501708223	5e-06
0	33	0.386018294729	1e-06
0	33	0.386018294729	1e-06
0	81	1.384381708223	0
0	81	1.384381708223	5e-06
0	83	1.384701708223	0
0	83	1.384701708223	0
0	83	1.384701708223	0.005
0	85	1.384893708223	0
0	85	1.384893708223	0.075
0	88	1.385309708223	0.005
0	88	1.385309708223	0.005
0	93	1.385501708223	0
0	93	1.385501708223	5e-06
0	93	1.385501708223	5e-06
0	96	1.385502244529	0
0	96	1.385502244529	0.05
0	101	1.387134244529	5e-06
0	101	1.387134244529	5e-06
0	104	1.387134244529	0
0	104	1.387134244529	0
0	104	1.387134244529	0.005
0	117	1.387326244529	0
0	117	1.387326244529	0.075
0	121	1.387518244529	0.005
0	121	1.387518244529	0.005
0	121	1.387518244529	0
0	121	1.387518244529	5e-06
0	121	1.387518244529	5e-06
0	126	1.388034831035	1e-06
0	126	1.388034831035	1e-06
0	166	2.384381708223	0
0	166	2.384381708223	5e-06
0	168	2.384701708223	0
0	168	2.384701708223	0
0	168	2.384701708223	0.005
0	170	2.384893708223	0
0	170	2.384893708223	0.075
0	173	2.385309708223	0.005
0	173	2.385309708223	0.005
0	179	2.385501708223	0
0	179	2.385501708223	5e-06
0	179	2.385501708223	5e-06
0	182	2.385502244529	0
0	182	2.385502244529	0.05
0	191	2.387134244529	0.0001
0	191	2.387134244529	0.0001
0	196	2.387134799637	5e-06
0	197	2.387134799637	0
0	197	2.387134799637	0
0	197	2.387134799637	0.005
0	202	2.387326799637	0
0	202	2.387326799637	0.075
0	207	2.387518799637	0.005
0	207	2.387518799637	0.005
0	207	2.387518799637	0
0	207	2.387518799637	5e-06
0	207	2.387518799637	5e-06
0	217	2.389547335943	0
0	217	2.389547335943	0.05
0	227	2.391179335943	0.0001
0	227	2.391179335943	0.0001
0	234	2.392139891051	5e-06
0	235	2.392139891051	0
0	235	2.392139891051	0
0	235	2.392139891051	0.005
0	239	2.392331891051	0
0	239	2.392331891051	0.075
0	244	2.392523891051	0.005
0	244	2.392523891051	0.005
0	244	2.392523891051	0
0	244	2.392523891051	5e-06
0	244	2.392523891051	5e-06
0	254	2.395832427357	0
0	254	2.395832427357	0.05
0	261	2.397464427357	5e-06
0	261	2.397464427357	5e-06
0	264	2.397464427357	0
0	264	2.397464427357	0
0	264	2.397464427357	0.005
0	277	2.397656427357	0
0	277	2.397656427357	0.075
0	282	2.397848427357	0.005
0	282	2.397848427357	0.005
0	282	2.397848427357	0
0	282	2.397848427357	5e-06
0	282	2.397848427357	5e-06
0	291	2.399877518771	0
0	291	2.399877518771	0.05
0	297	2.401509518771	5e-06
0	297	2.401509518771	5e-06
0	300	2.401509518771	0
0	300	2.401509518771	0
0	300	2.401509518771	0.005
0	313	2.401701518771	0
0	313	2.401701518771	0.075
0	317	2.401893518771	0.005
0	317	2.401893518771	0.005
0	317	2.401893518771	0
0	317	2.401893518771	5e-06
0	317	2.401893518771	5e-06
0	325	2.407525518771	1e-06
0	325	2.407525518771	1e-06
0	369	3.384381708223	0
0	369	3.384381708223	5e-06
0	371	3.384701708223	0
0	371	3.384701708223	0
0	371	3.384701708223	0.005
0	373	3.384893708223	0
0	373	3.384893708223	0.075
0	376	3.385309708223	0.005
0	376	3.385309708223	0.005
0	382	3.385501708223	0
0	382	3.385501708223	5e-06
0	382	3.385501708223	5e-06
0	385	3.385502244529	0
0	385	3.385502244529	0.05
0	394	3.387134244529	0.0001
0	394	3.387134244529	0.0001
0	399	3.387134799637	5e-06
0	400	3.387134799637	0
0	400	3.387134799637	0
0	400	3.387134799637	0.005
0	405	3.387326799637	0
0	405	3.387326799637	0.075
0	410	3.387518799637	0.005
0	410	3.387518799637	0.005
0	410	3.387518799637	0
0	410	3.387518799637	5e-06
0	410	3.387518799637	5e-06
0	420	3.388267891051	0
0	420	3.388267891051	0.05
0	425	3.389899891051	5e-06
0	425	3.389899891051	5e-06
0	428	3.389899891051	0
0	428	3.389899891051	0
0	428	3.389899891051	0.005
0	441	3.390091891051	0
0	441	3.390091891051	0.075
0	445	3.390283891051	0.005
0	445	3.390283891051	0.005
0	445	3.390283891051	0
0	445	3.390283891051	5e-06
0	445	3.390283891051	5e-06
0	454	3.391672427357	0
0	454	3.391672427357	0.05
0	459	3.393304427357	5e-06
0	459	3.393304427357	5e-06
0	462	3.393304427357	0
0	462	3.393304427357	0
0	462	3.393304427357	0.005
0	475	3.393496427357	0
0	475	3.393496427357	0.075
0	479	3.393688427357	0.005
0	479	3.393688427357	0.005
0	479	3.393688427357	0
0	479	3.393688427357	5e-06
0	479	3.393688427357	5e-06
0	485	3.396760427357	1e-06
0	485	3.396760427357	1e-06
0	525	4.384381708223	0
0	525	4.384381708223	5e-06
0	527	4.384701708223	0
0	527	4.384701708223	0
0	527	4.384701708223	0.005
0	529	4.384893708223	0
0	529	4.384893708223	0.075
0	532	4.385309708223	0.005
0	532	4.385309708223	0.005
0	538	4.385501708223	0
0	538	4.385501708223	5e-06
0	538	4.385501708223	5e-06
0	541	4.385502244529	0
0	541	4.385502244529	0.05
0	550	4.387134244529	0.0001
0	550	4.387134244529	0.0001
0	555	4.387134799637	5e-06
0	556	4.387134799637	0
0	556	4.387134799637	0
0	556	4.387134799637	0.005
0	561	4.387326799637	0
0	561	4.387326799637	0.075
0	566	4.387518799637	0.005
0	566	4.387518799637	0.005
0	566	4.387518799637	0
0	566	4.387518799637	5e-06
0	566	4.387518799637	5e-06
0	576	4.388907335943	0
0	576	4.388907335943	0.05
0	586	4.390539335943	0.0001
0	586	4.390539335943	0.0001
0	593	4.391819891051	5e-06
0	594	4.391819891051	0
0	594	4.391819891051	0
0	594	4.391819891051	0.005
0	598	4.392011891051	0
0	598	4.392011891051	0.075
0	603	4.392203891051	0.005
0	603	4.392203891051	0.005
0	603	4.392203891051	0
0	603	4.392203891051	5e-06
0	603	4.392203891051	5e-06
0	612	4.392632427357	0
0	612	4.392632427357	0.05
0	622	4.394264427357	0.0001
0	622	4.394264427357	0.0001
0	628	4.394584982465	5e-06
0	629	4.394584982465	0
0	629	4.394584982465	0
0	629	4.394584982465	0.005
0	633	4.394776982465	0
0	633	4.394776982465	0.075
0	639	4.394968982465	0.005
0	639	4.394968982465	0.005
0	639	4.394968982465	0
0	639	4.394968982465	5e-06
0	639	4.394968982465	5e-06
0	652	4.398277518771	0
0	652	4.398277518771	0.05
0	657	4.399909518771	5e-06
0	657	4.399909518771	5e-06
0	660	4.399909518771	0
0	660	4.399909518771	0
0	660	4.399909518771	0.005
0	673	4.400101518771	0
0	673	4.400101518771	0.075
0	677	4.400293518771	0.005
0	677	4.400293518771	0.005
0	677	4.400293518771	0
0	677	4.400293518771	5e-06
0	677	4.400293518771	5e-06
0	694	4.410642610185	0
0	694	4.410642610185	0.05
0	699	4.412274610185	5e-06
0	699	4.412274610185	5e-06
0	702	4.412274610185	0
0	702	4.412274610185	0
0	702	4.412274610185	0.005
0	715	4.412466610185	0
0	715	4.412466610185	0.075
0	719	4.412658610185	0.005
0	719	4.412658610185	0.005
0	719	4.412658610185	0
0	719	4.412658610185	5e-06
0	719	4.412658610185	5e-06
0	726	4.423410610185	1e-06
0	726	4.423410610185	1e-06
0	763	5.384381708223	0
0	763	5.384381708223	5e-06
0	765	5.384701708223	0
0	765	5.384701708223	0
0	765	5.384701708223	0.005
0	767	5.384893708223	0
0	767	5.384893708223	0.075
0	770	5.385309708223	0.005
0	770	5.385309708223	0.005
0	776	5.385501708223	0
0	776	5.385501708223	5e-06
0	776	5.385501708223	5e-06
0	779	5.385502244529	0
0	779	5.385502244529	0.05
0	788	5.387134244529	0.0001
0	788	5.387134244529	0.0001
0	793	5.387134799637	5e-06
0	794	5.387134799637	0
0	794	5.387134799637	0
0	794	5.387134799637	0.005
0	799	5.387326799637	0
0	799	5.387326799637	0.075
0	804	5.387518799637	0.005
0	804	5.387518799637	0.005
0	804	5.387518799637	0
0	804	5.387518799637	5e-06
0	804	5.387518799637	5e-06
0	814	5.388587335943	0
0	814	5.388587335943	0.05
0	824	5.390219335943	0.0001
0	824	5.390219335943	0.0001
0	831	5.391819891051	5e-06
0	832	5.391819891051	0
0	832	5.391819891051	0
0	832	5.391819891051	0.005
0	836	5.392011891051	0
0	836	5.392011891051	0.075
0	841	5.392203891051	0.005
0	841	5.392203891051	0.005
0	841	5.392203891051	0
0	841	5.392203891051	5e-06
0	841	5.392203891051	5e-06
0	850	5.392632982465	0
0	850	5.392632982465	0.05
0	860	5.394264982465	0.0001
0	860	5.394264982465	0.0001
0	867	5.394904427357	5e-06
0	868	5.394904427357	0
0	868	5.394904427357	0
0	868	5.394904427357	0.005
0	872	5.395096427357	0
0	872	5.395096427357	0.075
0	877	5.395288427357	0.005
0	877	5.395288427357	0.005
0	877	5.395288427357	0
0	877	5.395288427357	5e-06
0	877	5.395288427357	5e-06
0	887	5.395716963663	0
0	887	5.395716963663	0.05
0	899	5.397348963663	0.0001
0	899	5.397348963663	0.0001
0	907	5.398949518771	5e-06
0	908	5.398949518771	0
0	908	5.398949518771	0
0	908	5.398949518771	0.005
0	912	5.399141518771	0
0	912	5.399141518771	0.075
0	917	5.399333518771	0.005
0	917	5.399333518771	0.005
0	917	5.399333518771	0
0	917	5.399333518771	5e-06
0	917	5.399333518771	5e-06
0	931	5.405202610185	0
0	931	5.405202610185	0.05
0	937	5.406834610185	5e-06
0	937	5.406834610185	5e-06
0	940	5.406834610185	0
0	940	5.406834610185	0
0	940	5.406834610185	0.005
0	953	5.407026610185	0
0	953	5.407026610185	0.075
0	957	5.407218610185	0.005
0	957	5.407218610185	0.005
0	957	5.407218610185	0
0	957	5.407218610185	5e-06
0	957	5.407218610185	5e-06
0	967	5.408927146491	0
0	967	5.408927146491	0.05
0	974	5.410559146491	5e-06
0	974	5.410559146491	5e-06
0	977	5.410559146491	0
0	977	5.410559146491	0
0	977	5.410559146491	0.005
0	990	5.410751146491	0
0	990	5.410751146491	0.075
0	994	5.410943146491	0.005
0	994	5.410943146491	0.005
0	994	5.410943146491	0
0	994	5.410943146491	5e-06
0	994	5.410943146491	5e-06
0	1007	5.431935146491	1e-06
0	1007	5.431935146491	1e-06
0	1044	6.384381708223	0
0	1044	6.384381708223	5e-06
0	1046	6.384701708223	0
0	1046	6.384701708223	0
0	1046	6.384701708223	0.005
0	1048	6.384893708223	0
0	1048	6.384893708223	0.075
0	1051	6.385309708223	0.005
0	1051	6.385309708223	0.005
0	1057	6.385501708223	0
0	1057	6.385501708223	5e-06
0	1057	6.385501708223	5e-06
0	1060	6.385502244529	0
0	1060	6.385502244529	0.05
0	1069	6.387134244529	0.0001
0	1069	6.387134244529	0.0001
0	1074	6.387134799637	5e-06
0	1075	6.387134799637	0
0	1075	6.387134799637	0
0	1075	6.387134799637	0.005
0	1080	6.387326799637	0
0	1080	6.387326799637	0.075
0	1085	6.387518799637	0.005
0	1085	6.387518799637	0.005
0	1085	6.387518799637	0
0	1085	6.387518799637	5e-06
0	1085	6.387518799637	5e-06
0	1095	6.388267335943	0
0	1095	6.388267335943	0.05
0	1100	6.389899335943	5e-06
0	1100	6.389899335943	5e-06
0	1103	6.389899335943	0
0	1103	6.389899335943	0
0	1103	6.389899335943	0.005
0	1117	6.390091335943	0
0	1117	6.390091335943	0.075
0	1125	6.390283335943	0.005
0	1125	6.390283335943	0.005
0	1125	6.390283335943	0
0	1125	6.390283335943	0.0001
0	1125	6.390283335943	0.0001
0	1132	6.391819891051	5e-06
0	1133	6.391819891051	0
0	1133	6.391819891051	0
0	1133	6.391819891051	0.005
0	1137	6.392011891051	0
0	1137	6.392011891051	0.075
0	1141	6.392203891051	0.005
0	1141	6.392203891051	0.005
0	1141	6.392203891051	0
0	1141	6.392203891051	5e-06
0	1141	6.392203891051	5e-06
0	1150	6.395512982465	0
0	1150	6.395512982465	0.05
0	1157	6.397144982465	5e-06
0	1157	6.397144982465	5e-06
0	1160	6.397144982465	0
0	1160	6.397144982465	0
0	1160	6.397144982465	0.005
0	1173	6.397336982465	0
0	1173	6.397336982465	0.075
0	1177	6.397528982465	0.005
0	1177	6.397528982465	0.005
0	1177	6.397528982465	0
0	1177	6.397528982465	5e-06
0	1177	6.397528982465	5e-06
0	1191	6.403160982465	1e-06
0	1191	6.403160982465	1e-06
0	1222	7.384381708223	0
0	1222	7.384381708223	5e-06
0	1224	7.384701708223	0
0	1224	7.384701708223	0
0	1224	7.384701708223	0.005
0	1226	7.384893708223	0
0	1226	7.384893708223	0.075
0	1229	7.385309708223	0.005
0	1229	7.385309708223	0.005
0	1235	7.385501708223	0
0	1235	7.385501708223	5e-06
0	1235	7.385501708223	5e-06
0	1238	7.385502244529	0
0	1238	7.385502244529	0.05
0	1247	7.387134244529	0.0001
0	1247	7.387134244529	0.0001
0	1252	7.387134799637	5e-06
0	1253	7.387134799637	0
0	1253	7.387134799637	0
0	1253	7.387134799637	0.005
0	1258	7.387326799637	0
0	1258	7.387326799637	0.075
0	1263	7.387518799637	0.005
0	1263	7.387518799637	0.005
0	1263	7.387518799637	0
0	1263	7.387518799637	5e-06
0	1263	7.387518799637	5e-06
0	1273	7.389867335943	0
0	1273	7.389867335943	0.05
0	1283	7.391499335943	0.0001
0	1283	7.391499335943	0.0001
0	1289	7.391819891051	5e-06
0	1290	7.391819891051	0
0	1290	7.391819891051	0
0	1290	7.391819891051	0.005
0	1294	7.392011891051	0
0	1294	7.392011891051	0.075
0	1300	7.392203891051	0.005
0	1300	7.392203891051	0.005
0	1300	7.392203891051	0
0	1300	7.392203891051	5e-06
0	1300	7.392203891051	5e-06
0	1310	7.396152427357	0
0	1310	7.396152427357	0.05
0	1323	7.397784427357	0.0001
0	1323	7.397784427357	0.0001
0	1330	7.398744982465	5e-06
0	1331	7.398744982465	0
0	1331	7.398744982465	0
0	1331	7.398744982465	0.005
0	1335	7.398936982465	0
0	1335	7.398936982465	0.075
0	1340	7.399128982465	0.005
0	1340	7.399128982465	0.005
0	1340	7.399128982465	0
0	1340	7.399128982465	5e-06
0	1340	7.399128982465	5e-06
0	1352	7.405317518771	0
0	1352	7.405317518771	0.05
0	1357	7.406949518771	5e-06
0	1357	7.406949518771	5e-06
0	1360	7.406949518771	0
0	1360	7.406949518771	0
0	1360	7.406949518771	0.005
0	1373	7.407141518771	0
0	1373	7.407141518771	0.075
0	1377	7.407333518771	0.005
0	1377	7.407333518771	0.005
0	1377	7.407333518771	0
0	1377	7.407333518771	5e-06
0	1377	7.407333518771	5e-06
0	1386	7.407762610185	0
0	1386	7.407762610185	0.05
0	1394	7.409394610185	5e-06
0	1394	7.409394610185	5e-06
0	1397	7.409394610185	0
0	1397	7.409394610185	0
0	1397	7.409394610185	0.005
0	1410	7.409586610185	0
0	1410	7.409586610185	0.075
0	1414	7.409778610185	0.005
0	1414	7.409778610185	0.005
0	1414	7.409778610185	0
0	1414	7.409778610185	5e-06
0	1414	7.409778610185	5e-06
0	1423	7.420530610185	1e-06
0	1423	7.420530610185	1e-06
0	1460	8.384381708223	0
0	1460	8.384381708223	5e-06
0	1462	8.384701708223	0
0	1462	8.384701708223	0
0	1462	8.384701708223	0.005
0	1464	8.384893708223	0
0	1464	8.384893708223	0.075
0	1467	8.385309708223	0.005
0	1467	8.385309708223	0.005
0	1472	8.385501708223	0
0	1472	8.385501708223	5e-06
0	1472	8.385501708223	5e-06
0	1475	8.385502799637	0
0	1475	8.385502799637	0.05
0	1480	8.387134799637	5e-06
0	1480	8.387134799637	5e-06
0	1483	8.387134799637	0
0	1483	8.387134799637	0
0	1483	8.387134799637	0.005
0	1496	8.387326799637	0
0	1496	8.387326799637	0.075
0	1500	8.387518799637	0.005
0	1500	8.387518799637	0.005
0	1500	8.387518799637	0
0	1500	8.387518799637	5e-06
0	1500	8.387518799637	5e-06
0	1507	8.387947891051	0
0	1507	8.387947891051	0.05
0	1512	8.389579891051	5e-06
0	1512	8.389579891051	5e-06
0	1515	8.389579891051	0
0	1515	8.389579891051	0
0	1515	8.389579891051	0.005
0	1528	8.389771891051	0
0	1528	8.389771891051	0.075
0	1532	8.389963891051	0.005
0	1532	8.389963891051	0.005
0	1532	8.389963891051	0
0	1532	8.389963891051	5e-06
0	1532	8.389963891051	5e-06
0	1539	8.390392982465	0
0	1539	8.390392982465	0.05
0	1544	8.392024982465	5e-06
0	1544	8.392024982465	5e-06
0	1547	8.392024982465	0
0	1547	8.392024982465	0
0	1547	8.392024982465	0.005
0	1560	8.392216982465	0
0	1560	8.392216982465	0.075
0	1564	8.392408982465	0.005
0	1564	8.392408982465	0.005
0	1564	8.392408982465	0
0	1564	8.392408982465	5e-06
0	1564	8.392408982465	5e-06
0	1571	8.392838073879	0
0	1571	8.392838073879	0.05
0	1576	8.394470073879	5e-06
0	1576	8.394470073879	5e-06
0	1579	8.394470073879	0
0	1579	8.394470073879	0
0	1579	8.394470073879	0.005
0	1592	8.394662073879	0
0	1592	8.394662073879	0.075
1	0	0	0
1	0	0	0
1	0	0	0
1	2	0	1e-06
1	35	0.437587209977	0
1	35	0.437587209977	5e-06
1	37	0.437907209977	0
1	37	0.437907209977	0
1	37	0.437907209977	0.005
1	39	0.438099209977	0
1	39	0.438099209977	0.075
1	42	0.438515209977	0.005
1	42	0.438515209977	0.005
1	46	0.438707209977	0
1	46	0.438707209977	5e-06
1	46	0.438707209977	5e-06
1	47	0.439223796483	1e-06
1	47	0.439223796483	1e-06
1	130	1.437587209977	0
1	130	1.437587209977	5e-06
1	132	1.437907209977	0
1	132	1.437907209977	0
1	132	1.437907209977	0.005
1	134	1.438099209977	0
1	134	1.438099209977	0.075
1	137	1.438515209977	0.005
1	137	1.438515209977	0.005
1	141	1.438707209977	0
1	141	1.438707209977	5e-06
1	141	1.438707209977	5e-06
1	172	2.38489425393	0
1	172	2.38489425393	0.05
1	177	2.38531025393	5e-06
1	177	2.38531025393	5e-06
1	178	2.38531025393	0
1	178	2.38531025393	0
1	178	2.38531025393	0.005
1	185	2.38550225393	0
1	185	2.38550225393	0.075
1	193	2.38713425393	0.005
1	193	2.38713425393	0.005
1	194	2.38713425393	0
1	194	2.38713425393	5e-06
1	194	2.38713425393	5e-06
1	205	2.387327345344	0
1	205	2.387327345344	0.05
1	212	2.387755345344	5e-06
1	212	2.387755345344	5e-06
1	220	2.390315345344	0
1	220	2.390315345344	0
1	220	2.390315345344	0.005
1	222	2.390507345344	0
1	222	2.390507345344	0.075
1	232	2.392139345344	0.005
1	232	2.392139345344	0.005
1	233	2.392139345344	0
1	233	2.392139345344	5e-06
1	233	2.392139345344	5e-06
1	242	2.392332436758	0
1	242	2.392332436758	0.05
1	248	2.392760436758	5e-06
1	248	2.392760436758	5e-06
1	280	2.397656973064	0
1	280	2.397656973064	0.05
1	286	2.398084973064	5e-06
1	286	2.398084973064	5e-06
1	288	2.399684973064	0
1	288	2.399684973064	0
1	288	2.399684973064	0.005
1	290	2.399876973064	0
1	290	2.399876973064	0.075
1	295	2.401508973064	0.005
1	295	2.401508973064	0.005
1	296	2.401508973064	0
1	296	2.401508973064	5e-06
1	296	2.401508973064	5e-06
1	315	2.401702064478	0
1	315	2.401702064478	0.05
1	320	2.402130064478	5e-06
1	320	2.402130064478	5e-06
1	321	2.402130064478	1e-06
1	321	2.402130064478	1e-06
1	329	2.437587209977	0
1	329	2.437587209977	5e-06
1	331	2.437907209977	0
1	331	2.437907209977	0
1	331	2.437907209977	0.005
1	333	2.438099209977	0
1	333	2.438099209977	0.075
1	336	2.438515209977	0.005
1	336	2.438515209977	0.005
1	340	2.438707209977	0
1	340	2.438707209977	5e-06
1	340	2.438707209977	5e-06
1	375	3.38489425393	0
1	375	3.38489425393	0.05
1	380	3.38531025393	5e-06
1	380	3.38531025393	5e-06
1	381	3.38531025393	0
1	381	3.38531025393	0
1	381	3.38531025393	0.005
1	388	3.38550225393	0
1	388	3.38550225393	0.075
1	396	3.38713425393	0.005
1	396	3.38713425393	0.005
1	397	3.38713425393	0
1	397	3.38713425393	5e-06
1	397	3.38713425393	5e-06
1	408	3.387327345344	0
1	408	3.387327345344	0.05
1	415	3.387755345344	5e-06
1	415	3.387755345344	5e-06
1	417	3.388075345344	0
1	417	3.388075345344	0
1	417	3.388075345344	0.005
1	419	3.388267345344	0
1	419	3.388267345344	0.075
1	423	3.389899345344	0.005
1	423	3.389899345344	0.005
1	424	3.389899345344	0
1	424	3.389899345344	5e-06
1	424	3.389899345344	5e-06
1	443	3.390092436758	0
1	443	3.390092436758	0.05
1	449	3.390520436758	5e-06
1	449	3.390520436758	5e-06
1	450	3.390520436758	1e-06
1	450	3.390520436758	1e-06
1	493	3.437587209977	0
1	493	3.437587209977	5e-06
1	495	3.437907209977	0
1	495	3.437907209977	0
1	495	3.437907209977	0.005
1	497	3.438099209977	0
1	497	3.438099209977	0.075
1	500	3.438515209977	0.005
1	500	3.438515209977	0.005
1	504	3.438707209977	0
1	504	3.438707209977	5e-06
1	504	3.438707209977	5e-06
1	531	4.38489425393	0
1	531	4.38489425393	0.05
1	536	4.38531025393	5e-06
1	536	4.38531025393	5e-06
1	537	4.38531025393	0
1	537	4.38531025393	0
1	537	4.38531025393	0.005
1	544	4.38550225393	0
1	544	4.38550225393	0.075
1	552	4.38713425393	0.005
1	552	4.38713425393	0.005
1	553	4.38713425393	0
1	553	4.38713425393	5e-06
1	553	4.38713425393	5e-06
1	564	4.387327345344	0
1	564	4.387327345344	0.05
1	571	4.387755345344	5e-06
1	571	4.387755345344	5e-06
1	579	4.389995345344	0
1	579	4.389995345344	0
1	579	4.389995345344	0.005
1	581	4.390187345344	0
1	581	4.390187345344	0.075
1	591	4.391819345344	0.005
1	591	4.391819345344	0.005
1	592	4.391819345344	0
1	592	4.391819345344	5e-06
1	592	4.391819345344	5e-06
1	601	4.392012436758	0
1	601	4.392012436758	0.05
1	608	4.392440436758	5e-06
1	608	4.392440436758	5e-06
1	615	4.392760436758	0
1	615	4.392760436758	0
1	615	4.392760436758	0.005
1	617	4.392952436758	0
1	617	4.392952436758	0.075
1	626	4.394584436758	0.005
1	626	4.394584436758	0.005
1	627	4.394584436758	0
1	627	4.394584436758	5e-06
1	627	4.394584436758	5e-06
1	636	4.394777528172	0
1	636	4.394777528172	0.05
1	643	4.395205528172	5e-06
1	643	4.395205528172	5e-06
1	676	4.400102064478	0
1	676	4.400102064478	0.05
1	681	4.400530064478	5e-06
1	681	4.400530064478	5e-06
1	690	4.410450064478	0
1	690	4.410450064478	0
1	690	4.410450064478	0.005
1	693	4.410642064478	0
1	693	4.410642064478	0.075
1	697	4.412274064478	0.005
1	697	4.412274064478	0.005
1	698	4.412274064478	0
1	698	4.412274064478	5e-06
1	698	4.412274064478	5e-06
1	717	4.412467155892	0
1	717	4.412467155892	0.05
1	722	4.412895155892	5e-06
1	722	4.412895155892	5e-06
1	723	4.412895155892	1e-06
1	723	4.412895155892	1e-06
1	727	4.437587209977	0
1	727	4.437587209977	5e-06
1	729	4.437907209977	0
1	729	4.437907209977	0
1	729	4.437907209977	0.005
1	731	4.438099209977	0
1	731	4.438099209977	0.075
1	734	4.438515209977	0.005
1	734	4.438515209977	0.005
1	738	4.438707209977	0
1	738	4.438707209977	5e-06
1	738	4.438707209977	5e-06
1	769	5.38489425393	0
1	769	5.38489425393	0.05
1	774	5.38531025393	5e-06
1	774	5.38531025393	5e-06
1	775	5.38531025393	0
1	775	5.38531025393	0
1	775	5.38531025393	0.005
1	782	5.38550225393	0
1	782	5.38550225393	0.075
1	790	5.38713425393	0.005
1	790	5.38713425393	0.005
1	791	5.38713425393	0
1	791	5.38713425393	5e-06
1	791	5.38713425393	5e-06
1	802	5.387327345344	0
1	802	5.387327345344	0.05
1	809	5.387755345344	5e-06
1	809	5.387755345344	5e-06
1	817	5.389995345344	0
1	817	5.389995345344	0
1	817	5.389995345344	0.005
1	819	5.390187345344	0
1	819	5.390187345344	0.075
1	829	5.391819345344	0.005
1	829	5.391819345344	0.005
1	830	5.391819345344	0
1	830	5.391819345344	5e-06
1	830	5.391819345344	5e-06
1	839	5.392012436758	0
1	839	5.392012436758	0.05
1	845	5.392440436758	5e-06
1	845	5.392440436758	5e-06
1	847	5.392440436758	0
1	847	5.392440436758	0
1	847	5.392440436758	0.005
1	849	5.392632436758	0
1	849	5.392632436758	0.075
1	858	5.394264436758	0.005
1	858	5.394264436758	0.005
1	859	5.394264436758	0
1	859	5.394264436758	5e-06
1	859	5.394264436758	5e-06
1	875	5.395096973064	0
1	875	5.395096973064	0.05
1	883	5.395524973064	5e-06
1	883	5.395524973064	5e-06
1	890	5.397124973064	0
1	890	5.397124973064	0
1	890	5.397124973064	0.005
1	894	5.397316973064	0
1	894	5.397316973064	0.075
1	905	5.398948973064	0.005
1	905	5.398948973064	0.005
1	906	5.398948973064	0
1	906	5.398948973064	5e-06
1	906	5.398948973064	5e-06
1	915	5.399142064478	0
1	915	5.399142064478	0.05
1	921	5.399570064478	5e-06
1	921	5.399570064478	5e-06
1	928	5.405010064478	0
1	928	5.405010064478	0
1	928	5.405010064478	0.005
1	930	5.405202064478	0
1	930	5.405202064478	0.075
1	935	5.406834064478	0.005
1	935	5.406834064478	0.005
1	936	5.406834064478	0
1	936	5.406834064478	5e-06
1	936	5.406834064478	5e-06
1	955	5.407027155892	0
1	955	5.407027155892	0.05
1	962	5.407455155892	5e-06
1	962	5.407455155892	5e-06
1	963	5.407455155892	1e-06
1	963	5.407455155892	1e-06
1	1008	5.437587209977	0
1	1008	5.437587209977	5e-06
1	1010	5.437907209977	0
1	1010	5.437907209977	0
1	1010	5.437907209977	0.005
1	1012	5.438099209977	0
1	1012	5.438099209977	0.075
1	1015	5.438515209977	0.005
1	1015	5.438515209977	0.005
1	1019	5.438707209977	0
1	1019	5.438707209977	5e-06
1	1019	5.438707209977	5e-06
1	1050	6.38489425393	0
1	1050	6.38489425393	0.05
1	1055	6.38531025393	5e-06
1	1055	6.38531025393	5e-06
1	1056	6.38531025393	0
1	1056	6.38531025393	0
1	1056	6.38531025393	0.005
1	1063	6.38550225393	0
1	1063	6.38550225393	0.075
1	1071	6.38713425393	0.005
1	1071	6.38713425393	0.005
1	1072	6.38713425393	0
1	1072	6.38713425393	5e-06
1	1072	6.38713425393	5e-06
1	1083	6.387327345344	0
1	1083	6.387327345344	0.05
1	1090	6.387755345344	5e-06
1	1090	6.387755345344	5e-06
1	1114	6.389995345344	0
1	1114	6.389995345344	0
1	1114	6.389995345344	0.005
1	1122	6.390187345344	0
1	1122	6.390187345344	0.075
1	1130	6.391819345344	0.005
1	1130	6.391819345344	0.005
1	1131	6.391819345344	0
1	1131	6.391819345344	5e-06
1	1131	6.391819345344	5e-06
1	1139	6.392012436758	0
1	1139	6.392012436758	0.05
1	1144	6.392440436758	5e-06
1	1144	6.392440436758	5e-06
1	1147	6.395320436758	0
1	1147	6.395320436758	0
1	1147	6.395320436758	0.005
1	1149	6.395512436758	0
1	1149	6.395512436758	0.075
1	1155	6.397144436758	0.005
1	1155	6.397144436758	0.005
1	1156	6.397144436758	0
1	1156	6.397144436758	5e-06
1	1156	6.397144436758	5e-06
1	1175	6.397337528172	0
1	1175	6.397337528172	0.05
1	1181	6.397765528172	5e-06
1	1181	6.397765528172	5e-06
1	1182	6.397765528172	1e-06
1	1182	6.397765528172	1e-06
1	1194	6.437587209977	0
1	1194	6.437587209977	5e-06
1	1196	6.437907209977	0
1	1196	6.437907209977	0
1	1196	6.437907209977	0.005
1	1198	6.438099209977	0
1	1198	6.438099209977	0.075
1	1201	6.438515209977	0.005
1	1201	6.438515209977	0.005
1	1205	6.438707209977	0
1	1205	6.438707209977	5e-06
1	1205	6.438707209977	5e-06
1	1228	7.38489425393	0
1	1228	7.38489425393	0.05
1	1233	7.38531025393	5e-06
1	1233	7.38531025393	5e-06
1	1234	7.38531025393	0
1	1234	7.38531025393	0
1	1234	7.38531025393	0.005
1	1241	7.38550225393	0
1	1241	7.38550225393	0.075
1	1249	7.38713425393	0.005
1	1249	7.38713425393	0.005
1	1250	7.38713425393	0
1	1250	7.38713425393	5e-06
1	1250	7.38713425393	5e-06
1	1261	7.387327345344	0
1	1261	7.387327345344	0.05
1	1268	7.387755345344	5e-06
1	1268	7.387755345344	5e-06
1	1276	7.389995345344	0
1	1276	7.389995345344	0
1	1276	7.389995345344	0.005
1	1278	7.390187345344	0
1	1278	7.390187345344	0.075
1	1287	7.391819345344	0.005
1	1287	7.391819345344	0.005
1	1288	7.391819345344	0
1	1288	7.391819345344	5e-06
1	1288	7.391819345344	5e-06
1	1297	7.392012436758	0
1	1297	7.392012436758	0.05
1	1304	7.392440436758	5e-06
1	1304	7.392440436758	5e-06
1	1313	7.396920436758	0
1	1313	7.396920436758	0
1	1313	7.396920436758	0.005
1	1315	7.397112436758	0
1	1315	7.397112436758	0.075
1	1328	7.398744436758	0.005
1	1328	7.398744436758	0.005
1	1329	7.398744436758	0
1	1329	7.398744436758	5e-06
1	1329	7.398744436758	5e-06
1	1338	7.398937528172	0
1	1338	7.398937528172	0.05
1	1344	7.399365528172	5e-06
1	1344	7.399365528172	5e-06
1	1376	7.407142064478	0
1	1376	7.407142064478	0.05
1	1381	7.407570064478	5e-06
1	1381	7.407570064478	5e-06
1	1383	7.407570064478	0
1	1383	7.407570064478	0
1	1383	7.407570064478	0.005
1	1385	7.407762064478	0
1	1385	7.407762064478	0.075
1	1392	7.409394064478	0.005
1	1392	7.409394064478	0.005
1	1393	7.409394064478	0
1	1393	7.409394064478	5e-06
1	1393	7.409394064478	5e-06
1	1412	7.409587155892	0
1	1412	7.409587155892	0.05
1	1417	7.410015155892	5e-06
1	1417	7.410015155892	5e-06
1	1418	7.410015155892	1e-06
1	1418	7.410015155892	1e-06
1	1424	7.437587209977	0
1	1424	7.437587209977	5e-06
1	1426	7.437907209977	0
1	1426	7.437907209977	0
1	1426	7.437907209977	0.005
1	1428	7.438099209977	0
1	1428	7.438099209977	0.075
1	1431	7.438515209977	0.005
1	1431	7.438515209977	0.005
1	1435	7.438707209977	0
1	1435	7.438707209977	5e-06
1	1435	7.438707209977	5e-06
1	1466	8.38489425393	0
1	1466	8.38489425393	0.05
1	1470	8.38531025393	5e-06
1	1470	8.38531025393	5e-06
1	1471	8.38531025393	0
1	1471	8.38531025393	0
1	1471	8.38531025393	0.005
1	1474	8.38550225393	0
1	1474	8.38550225393	0.075
1	1478	8.38713425393	0.005
1	1478	8.38713425393	0.005
1	1479	8.38713425393	0
1	1479	8.38713425393	5e-06
1	1479	8.38713425393	5e-06
1	1498	8.387327345344	0
1	1498	8.387327345344	0.05
1	1503	8.387755345344	5e-06
1	1503	8.387755345344	5e-06
1	1504	8.387755345344	0
1	1504	8.387755345344	0
1	1504	8.387755345344	0.005
1	1506	8.387947345344	0
1	1506	8.387947345344	0.075
1	1510	8.389579345344	0.005
1	1510	8.389579345344	0.005
1	1511	8.389579345344	0
1	1511	8.389579345344	5e-06
1	1511	8.389579345344	5e-06
1	1530	8.389772436758	0
1	1530	8.389772436758	0.05
1	1535	8.390200436758	5e-06
1	1535	8.390200436758	5e-06
1	1536	8.390200436758	0
1	1536	8.390200436758	0
1	1536	8.390200436758	0.005
1	1538	8.390392436758	0
1	1538	8.390392436758	0.075
1	1542	8.392024436758	0.005
1	1542	8.392024436758	0.005
1	1543	8.392024436758	0
1	1543	8.392024436758	5e-06
1	1543	8.392024436758	5e-06
1	1562	8.392217528172	0
1	1562	8.392217528172	0.05
1	1567	8.392645528172	5e-06
1	1567	8.392645528172	5e-06
1	1568	8.392645528172	0
1	1568	8.392645528172	0
1	1568	8.392645528172	0.005
1	1570	8.392837528172	0
1	1570	8.392837528172	0.075
1	1574	8.394469528172	0.005
1	1574	8.394469528172	0.005
1	1575	8.394469528172	0
1	1575	8.394469528172	5e-06
1	1575	8.394469528172	5e-06
2	0	0	0
2	0	0	0
2	0	0	0
2	3	0	1e-06
2	7	0.297534605255	0
2	7	0.297534605255	5e-06
2	9	0.297854605255	0
2	9	0.297854605255	0
2	9	0.297854605255	0.005
2	11	0.298046605255	0
2	11	0.298046605255	0.075
2	14	0.298462605255	0.005
2	14	0.298462605255	0.005
2	18	0.298654605255	0
2	18	0.298654605255	5e-06
2	18	0.298654605255	5e-06
2	19	0.299171191761	1e-06
2	19	0.299171191761	1e-06
2	67	1.297534605255	0
2	67	1.297534605255	5e-06
2	69	1.297854605255	0
2	69	1.297854605255	0
2	69	1.297854605255	0.005
2	71	1.298046605255	0
2	71	1.298046605255	0.075
2	74	1.298462605255	0.005
2	74	1.298462605255	0.005
2	78	1.298654605255	0
2	78	1.298654605255	5e-06
2	78	1.298654605255	5e-06
2	86	1.384893976376	0
2	86	1.384893976376	0.05
2	90	1.385309976376	5e-06
2	90	1.385309976376	5e-06
2	91	1.385309976376	0
2	91	1.385309976376	0
2	91	1.385309976376	0.005
2	95	1.385501976376	0
2	95	1.385501976376	0.075
2	99	1.387133976376	0.005
2	99	1.387133976376	0.005
2	100	1.387133976376	0
2	100	1.387133976376	5e-06
2	100	1.387133976376	5e-06
2	118	1.387326512682	0
2	118	1.387326512682	0.05
2	123	1.387754512682	5e-06
2	123	1.387754512682	5e-06
2	124	1.387754512682	1e-06
2	124	1.387754512682	1e-06
2	148	2.297534605255	0
2	148	2.297534605255	5e-06
2	150	2.297854605255	0
2	150	2.297854605255	0
2	150	2.297854605255	0.005
2	152	2.298046605255	0
2	152	2.298046605255	0.075
2	155	2.298462605255	0.005
2	155	2.298462605255	0.005
2	159	2.298654605255	0
2	159	2.298654605255	5e-06
2	159	2.298654605255	5e-06
2	171	2.384893976376	0
2	171	2.384893976376	0.05
2	175	2.385309976376	5e-06
2	175	2.385309976376	5e-06
2	176	2.385309976376	0
2	176	2.385309976376	0
2	176	2.385309976376	0.005
2	181	2.385501976376	0
2	181	2.385501976376	0.075
2	189	2.387133976376	0.005
2	189	2.387133976376	0.005
2	190	2.387133976376	0
2	190	2.387133976376	5e-06
2	190	2.387133976376	5e-06
2	203	2.38732706779	0
2	203	2.38732706779	0.05
2	210	2.38775506779	5e-06
2	210	2.38775506779	5e-06
2	214	2.38935506779	0
2	214	2.38935506779	0
2	214	2.38935506779	0.005
2	216	2.38954706779	0
2	216	2.38954706779	0.075
2	225	2.39117906779	0.005
2	225	2.39117906779	0.005
2	226	2.39117906779	0
2	226	2.39117906779	5e-06
2	226	2.39117906779	5e-06
2	240	2.392332159204	0
2	240	2.392332159204	0.05
2	246	2.392760159204	5e-06
2	246	2.392760159204	5e-06
2	251	2.395640159204	0
2	251	2.395640159204	0
2	251	2.395640159204	0.005
2	253	2.395832159204	0
2	253	2.395832159204	0.075
2	259	2.397464159204	0.005
2	259	2.397464159204	0.005
2	260	2.397464159204	0
2	260	2.397464159204	5e-06
2	260	2.397464159204	5e-06
2	278	2.39765669551	0
2	278	2.39765669551	0.05
2	284	2.39808469551	5e-06
2	284	2.39808469551	5e-06
2	285	2.39808469551	1e-06
2	285	2.39808469551	1e-06
2	355	3.297534605255	0
2	355	3.297534605255	5e-06
2	357	3.297854605255	0
2	357	3.297854605255	0
2	357	3.297854605255	0.005
2	359	3.298046605255	0
2	359	3.298046605255	0.075
2	362	3.298462605255	0.005
2	362	3.298462605255	0.005
2	366	3.298654605255	0
2	366	3.298654605255	5e-06
2	366	3.298654605255	5e-06
2	374	3.384893976376	0
2	374	3.384893976376	0.05
2	378	3.385309976376	5e-06
2	378	3.385309976376	5e-06
2	379	3.385309976376	0
2	379	3.385309976376	0
2	379	3.385309976376	0.005
2	384	3.385501976376	0
2	384	3.385501976376	0.075
2	392	3.387133976376	0.005
2	392	3.387133976376	0.005
2	393	3.387133976376	0
2	393	3.387133976376	5e-06
2	393	3.387133976376	5e-06
2	406	3.38732706779	0
2	406	3.38732706779	0.05
2	413	3.38775506779	5e-06
2	413	3.38775506779	5e-06
2	442	3.390092159204	0
2	442	3.390092159204	0.05
2	447	3.390520159204	5e-06
2	447	3.390520159204	5e-06
2	451	3.391480159204	0
2	451	3.391480159204	0
2	451	3.391480159204	0.005
2	453	3.391672159204	0
2	453	3.391672159204	0.075
2	457	3.393304159204	0.005
2	457	3.393304159204	0.005
2	458	3.393304159204	0
2	458	3.393304159204	5e-06
2	458	3.393304159204	5e-06
2	476	3.39349669551	0
2	476	3.39349669551	0.05
2	481	3.39392469551	5e-06
2	481	3.39392469551	5e-06
2	482	3.39392469551	1e-06
2	482	3.39392469551	1e-06
2	511	4.297534605255	0
2	511	4.297534605255	5e-06
2	513	4.297854605255	0
2	513	4.297854605255	0
2	513	4.297854605255	0.005
2	515	4.298046605255	0
2	515	4.298046605255	0.075
2	518	4.298462605255	0.005
2	518	4.298462605255	0.005
2	522	4.298654605255	0
2	522	4.298654605255	5e-06
2	522	4.298654605255	5e-06
2	530	4.384893976376	0
2	530	4.384893976376	0.05
2	534	4.385309976376	5e-06
2	534	4.385309976376	5e-06
2	535	4.385309976376	0
2	535	4.385309976376	0
2	535	4.385309976376	0.005
2	540	4.385501976376	0
2	540	4.385501976376	0.075
2	548	4.387133976376	0.005
2	548	4.387133976376	0.005
2	549	4.387133976376	0
2	549	4.387133976376	5e-06
2	549	4.387133976376	5e-06
2	562	4.38732706779	0
2	562	4.38732706779	0.05
2	569	4.38775506779	5e-06
2	569	4.38775506779	5e-06
2	573	4.38871506779	0
2	573	4.38871506779	0
2	573	4.38871506779	0.005
2	575	4.38890706779	0
2	575	4.38890706779	0.075
2	584	4.39053906779	0.005
2	584	4.39053906779	0.005
2	585	4.39053906779	0
2	585	4.39053906779	5e-06
2	585	4.39053906779	5e-06
2	599	4.392012159204	0
2	599	4.392012159204	0.05
2	605	4.392440159204	5e-06
2	605	4.392440159204	5e-06
2	607	4.392440159204	0
2	607	4.392440159204	0
2	607	4.392440159204	0.005
2	611	4.392632159204	0
2	611	4.392632159204	0.075
2	620	4.394264159204	0.005
2	620	4.394264159204	0.005
2	621	4.394264159204	0
2	621	4.394264159204	5e-06
2	621	4.394264159204	5e-06
2	634	4.394777250618	0
2	634	4.394777250618	0.05
2	641	4.395205250618	5e-06
2	641	4.395205250618	5e-06
2	649	4.398085250618	0
2	649	4.398085250618	0
2	649	4.398085250618	0.005
2	651	4.398277250618	0
2	651	4.398277250618	0.075
2	655	4.399909250618	0.005
2	655	4.399909250618	0.005
2	656	4.399909250618	0
2	656	4.399909250618	5e-06
2	656	4.399909250618	5e-06
2	674	4.400101786924	0
2	674	4.400101786924	0.05
2	679	4.400529786924	5e-06
2	679	4.400529786924	5e-06
2	680	4.400529786924	1e-06
2	680	4.400529786924	1e-06
2	749	5.297534605255	0
2	749	5.297534605255	5e-06
2	751	5.297854605255	0
2	751	5.297854605255	0
2	751	5.297854605255	0.005
2	753	5.298046605255	0
2	753	5.298046605255	0.075
2	756	5.298462605255	0.005
2	756	5.298462605255	0.005
2	760	5.298654605255	0
2	760	5.298654605255	5e-06
2	760	5.298654605255	5e-06
2	768	5.384893976376	0
2	768	5.384893976376	0.05
2	772	5.385309976376	5e-06
2	772	5.385309976376	5e-06
2	773	5.385309976376	0
2	773	5.385309976376	0
2	773	5.385309976376	0.005
2	778	5.385501976376	0
2	778	5.385501976376	0.075
2	786	5.387133976376	0.005
2	786	5.387133976376	0.005
2	787	5.387133976376	0
2	787	5.387133976376	5e-06
2	787	5.387133976376	5e-06
2	800	5.38732706779	0
2	800	5.38732706779	0.05
2	807	5.38775506779	5e-06
2	807	5.38775506779	5e-06
2	811	5.38839506779	0
2	811	5.38839506779	0
2	811	5.38839506779	0.005
2	813	5.38858706779	0
2	813	5.38858706779	0.075
2	822	5.39021906779	0.005
2	822	5.39021906779	0.005
2	823	5.39021906779	0
2	823	5.39021906779	5e-06
2	823	5.39021906779	5e-06
2	837	5.392012159204	0
2	837	5.392012159204	0.05
2	843	5.392440159204	5e-06
2	843	5.392440159204	5e-06
2	853	5.393080159204	0
2	853	5.393080159204	0
2	853	5.393080159204	0.005
2	855	5.393272159204	0
2	855	5.393272159204	0.075
2	865	5.394904159204	0.005
2	865	5.394904159204	0.005
2	866	5.394904159204	0
2	866	5.394904159204	5e-06
2	866	5.394904159204	5e-06
2	873	5.39509669551	0
2	873	5.39509669551	0.05
2	880	5.39552469551	5e-06
2	880	5.39552469551	5e-06
2	882	5.39552469551	0
2	882	5.39552469551	0
2	882	5.39552469551	0.005
2	886	5.39571669551	0
2	886	5.39571669551	0.075
2	897	5.39734869551	0.005
2	897	5.39734869551	0.005
2	898	5.39734869551	0
2	898	5.39734869551	5e-06
2	898	5.39734869551	5e-06
2	913	5.399141786924	0
2	913	5.399141786924	0.05
2	919	5.399569786924	5e-06
2	919	5.399569786924	5e-06
2	954	5.407026878338	0
2	954	5.407026878338	0.05
2	960	5.407454878338	5e-06
2	960	5.407454878338	5e-06
2	964	5.408734878338	0
2	964	5.408734878338	0
2	964	5.408734878338	0.005
2	966	5.408926878338	0
2	966	5.408926878338	0.075
2	972	5.410558878338	0.005
2	972	5.410558878338	0.005
2	973	5.410558878338	0
2	973	5.410558878338	5e-06
2	973	5.410558878338	5e-06
2	991	5.410751414644	0
2	991	5.410751414644	0.05
2	996	5.411179414644	5e-06
2	996	5.411179414644	5e-06
2	997	5.411179414644	1e-06
2	997	5.411179414644	1e-06
2	1030	6.297534605255	0
2	1030	6.297534605255	5e-06
2	1032	6.297854605255	0
2	1032	6.297854605255	0
2	1032	6.297854605255	0.005
2	1034	6.298046605255	0
2	1034	6.298046605255	0.075
2	1037	6.298462605255	0.005
2	1037	6.298462605255	0.005
2	1041	6.298654605255	0
2	1041	6.298654605255	5e-06
2	1041	6.298654605255	5e-06
2	1049	6.384893976376	0
2	1049	6.384893976376	0.05
2	1053	6.385309976376	5e-06
2	1053	6.385309976376	5e-06
2	1054	6.385309976376	0
2	1054	6.385309976376	0
2	1054	6.385309976376	0.005
2	1059	6.385501976376	0
2	1059	6.385501976376	0.075
2	1067	6.387133976376	0.005
2	1067	6.387133976376	0.005
2	1068	6.387133976376	0
2	1068	6.387133976376	5e-06
2	1068	6.387133976376	5e-06
2	1081	6.38732706779	0
2	1081	6.38732706779	0.05
2	1088	6.38775506779	5e-06
2	1088	6.38775506779	5e-06
2	1092	6.38807506779	0
2	1092	6.38807506779	0
2	1092	6.38807506779	0.005
2	1094	6.38826706779	0
2	1094	6.38826706779	0.075
2	1098	6.38989906779	0.005
2	1098	6.38989906779	0.005
2	1099	6.38989906779	0
2	1099	6.38989906779	5e-06
2	1099	6.38989906779	5e-06
2	1118	6.390091604096	0
2	1118	6.390091604096	0.05
2	1127	6.390519604096	5e-06
2	1127	6.390519604096	5e-06
2	1128	6.390519604096	1e-06
2	1128	6.390519604096	1e-06
2	1208	7.297534605255	0
2	1208	7.297534605255	5e-06
2	1210	7.297854605255	0
2	1210	7.297854605255	0
2	1210	7.297854605255	0.005
2	1212	7.298046605255	0
2	1212	7.298046605255	0.075
2	1215	7.298462605255	0.005
2	1215	7.298462605255	0.005
2	1219	7.298654605255	0
2	1219	7.298654605255	5e-06
2	1219	7.298654605255	5e-06
2	1227	7.384893976376	0
2	1227	7.384893976376	0.05
2	1231	7.385309976376	5e-06
2	1231	7.385309976376	5e-06
2	1232	7.385309976376	0
2	1232	7.385309976376	0
2	1232	7.385309976376	0.005
2	1237	7.385501976376	0
2	1237	7.385501976376	0.075
2	1245	7.387133976376	0.005
2	1245	7.387133976376	0.005
2	1246	7.387133976376	0
2	1246	7.387133976376	5e-06
2	1246	7.387133976376	5e-06
2	1259	7.38732706779	0
2	1259	7.38732706779	0.05
2	1266	7.38775506779	5e-06
2	1266	7.38775506779	5e-06
2	1270	7.38967506779	0
2	1270	7.38967506779	0
2	1270	7.38967506779	0.005
2	1272	7.38986706779	0
2	1272	7.38986706779	0.075
2	1281	7.39149906779	0.005
2	1281	7.39149906779	0.005
2	1282	7.39149906779	0
2	1282	7.39149906779	5e-06
2	1282	7.39149906779	5e-06
2	1295	7.392012159204	0
2	1295	7.392012159204	0.05
2	1302	7.392440159204	5e-06
2	1302	7.392440159204	5e-06
2	1307	7.395960159204	0
2	1307	7.395960159204	0
2	1307	7.395960159204	0.005
2	1309	7.396152159204	0
2	1309	7.396152159204	0.075
2	1321	7.397784159204	0.005
2	1321	7.397784159204	0.005
2	1322	7.397784159204	0
2	1322	7.397784159204	5e-06
2	1322	7.397784159204	5e-06
2	1336	7.398937250618	0
2	1336	7.398937250618	0.05
2	1342	7.399365250618	5e-06
2	1342	7.399365250618	5e-06
2	1349	7.405125250618	0
2	1349	7.405125250618	0
2	1349	7.405125250618	0.005
2	1351	7.405317250618	0
2	1351	7.405317250618	0.075
2	1355	7.406949250618	0.005
2	1355	7.406949250618	0.005
2	1356	7.406949250618	0
2	1356	7.406949250618	5e-06
2	1356	7.406949250618	5e-06
2	1374	7.407141786924	0
2	1374	7.407141786924	0.05
2	1379	7.407569786924	5e-06
2	1379	7.407569786924	5e-06
2	1380	7.407569786924	1e-06
2	1380	7.407569786924	1e-06
2	1442	8.297534605255	0
2	1442	8.297534605255	5e-06
2	1444	8.297854605255	0
2	1444	8.297854605255	0
2	1444	8.297854605255	0.005
2	1446	8.298046605255	0
2	1446	8.298046605255	0.075
2	1449	8.298462605255	0.005
2	1449	8.298462605255	0.005
2	1453	8.298654605255	0
2	1453	8.298654605255	5e-06
2	1453	8.298654605255	5e-06
2	1454	8.299171191761	1e-06
2	1454	8.299171191761	1e-06
3	0	0	0
3	0	0	0
3	1	0	1
3	21	0.384381708223	2
3	23	0.384701708223	3
3	32	0.385501708223	2
3	33	0.386018294729	1
3	81	1.384381708223	2
3	83	1.384701708223	3
3	93	1.385501708223	2
3	104	1.387134244529	3
3	121	1.387518244529	2
3	126	1.388034831035	1
3	166	2.384381708223	2
3	168	2.384701708223	3
3	179	2.385501708223	2
3	197	2.387134799637	3
3	207	2.387518799637	2
3	235	2.392139891051	3
3	244	2.392523891051	2
3	264	2.397464427357	3
3	282	2.397848427357	2
3	300	2.401509518771	3
3	317	2.401893518771	2
3	325	2.407525518771	1
3	369	3.384381708223	2
3	371	3.384701708223	3
3	382	3.385501708223	2
3	400	3.387134799637	3
3	410	3.387518799637	2
3	428	3.389899891051	3
3	445	3.390283891051	2
3	462	3.393304427357	3
3	479	3.393688427357	2
3	485	3.396760427357	1
3	525	4.384381708223	2
3	527	4.384701708223	3
3	538	4.385501708223	2
3	556	4.387134799637	3
3	566	4.387518799637	2
3	594	4.391819891051	3
3	603	4.392203891051	2
3	629	4.394584982465	3
3	639	4.394968982465	2
3	660	4.399909518771	3
3	677	4.400293518771	2
3	702	4.412274610185	3
3	719	4.412658610185	2
3	726	4.423410610185	1
3	763	5.384381708223	2
3	765	5.384701708223	3
3	776	5.385501708223	2
3	794	5.387134799637	3
3	804	5.387518799637	2
3	832	5.391819891051	3
3	841	5.392203891051	2
3	868	5.394904427357	3
3	877	5.395288427357	2
3	908	5.398949518771	3
3	917	5.399333518771	2
3	940	5.406834610185	3
3	957	5.407218610185	2
3	977	5.410559146491	3
3	994	5.410943146491	2
3	1007	5.431935146491	1
3	1044	6.384381708223	2
3	1046	6.384701708223	3
3	1057	6.385501708223	2
3	1075	6.387134799637	3
3	1085	6.387518799637	2
3	1103	6.389899335943	3
3	1125	6.390283335943	2
3	1133	6.391819891051	3
3	1141	6.392203891051	2
3	1160	6.397144982465	3
3	1177	6.397528982465	2
3	1191	6.403160982465	1
3	1222	7.384381708223	2
3	1224	7.384701708223	3
3	1235	7.385501708223	2
3	1253	7.387134799637	3
3	1263	7.387518799637	2
3	1290	7.391819891051	3
3	1300	7.392203891051	2
3	1331	7.398744982465	3
3	1340	7.399128982465	2
3	1360	7.406949518771	3
3	1377	7.407333518771	2
3	1397	7.409394610185	3
3	1414	7.409778610185	2
3	1423	7.420530610185	1
3	1460	8.384381708223	2
3	1462	8.384701708223	3
3	1472	8.385501708223	2
3	1483	8.387134799637	3
3	1500	8.387518799637	2
3	1515	8.389579891051	3
3	1532	8.389963891051	2
3	1547	8.392024982465	3
3	1564	8.392408982465	2
3	1579	8.394470073879	3
4	0	0	0
4	0	0	0
4	1	0	1e-06
4	21	0.384381708223	0
4	21	0.384381708223	5e-06
4	23	0.384701708223	0
4	23	0.384701708223	0
4	23	0.384701708223	0.005
4	25	0.384893708223	0
4	25	0.384893708223	0.075
4	28	0.385309708223	0.005
4	28	0.385309708223	0.005
4	32	0.385501708223	0
4	32	0.385501708223	5e-06
4	32	0.385501708223	5e-06
4	33	0.386018294729	1e-06
4	33	0.386018294729	1e-06
4	81	1.384381708223	0
4	81	1.384381708223	5e-06
4	83	1.384701708223	0
4	83	1.384701708223	0
4	83	1.384701708223	0.005
4	85	1.384893708223	0
4	85	1.384893708223	0.075
4	88	1.385309708223	0.005
4	88	1.385309708223	0.005
4	93	1.385501708223	0
4	93	1.385501708223	5e-06
4	93	1.385501708223	5e-06
4	96	1.385502244529	0
4	96	1.385502244529	0.05
4	101	1.387134244529	5e-06
4	101	1.387134244529	5e-06
4	104	1.387134244529	0
4	104	1.387134244529	0
4	104	1.387134244529	0.005
4	117	1.387326244529	0
4	117	1.387326244529	0.075
4	121	1.387518244529	0.005
4	121	1.387518244529	0.005
4	121	1.387518244529	0
4	121	1.387518244529	5e-06
4	121	1.387518244529	5e-06
4	126	1.388034831035	1e-06
4	126	1.388034831035	1e-06
4	166	2.384381708223	0
4	166	2.384381708223	5e-06
4	168	2.384701708223	0
4	168	2.384701708223	0
4	168	2.384701708223	0.005
4	170	2.384893708223	0
4	170	2.384893708223	0.075
4	173	2.385309708223	0.005
4	173	2.385309708223	0.005
4	179	2.385501708223	0
4	179	2.385501708223	5e-06
4	179	2.385501708223	5e-06
4	182	2.385502244529	0
4	182	2.385502244529	0.05
4	191	2.387134244529	0.0001
4	191	2.387134244529	0.0001
4	196	2.387134799637	5e-06
4	197	2.387134799637	0
4	197	2.387134799637	0
4	197	2.387134799637	0.005
4	202	2.387326799637	0
4	202	2.387326799637	0.075
4	207	2.387518799637	0.005
4	207	2.387518799637	0.005
4	207	2.387518799637	0
4	207	2.387518799637	5e-06
4	207	2.387518799637	5e-06
4	217	2.389547335943	0
4	217	2.389547335943	0.05
4	227	2.391179335943	0.0001
4	227	2.391179335943	0.0001
4	234	2.392139891051	5e-06
4	235	2.392139891051	0
4	235	2.392139891051	0
4	235	2.392139891051	0.005
4	239	2.392331891051	0
4	239	2.392331891051	0.075
4	244	2.392523891051	0.005
4	244	2.392523891051	0.005
4	244	2.392523891051	0
4	244	2.392523891051	5e-06
4	244	2.392523891051	5e-06
4	254	2.395832427357	0
4	254	2.395832427357	0.05
4	261	2.397464427357	5e-06
4	261	2.397464427357	5e-06
4	264	2.397464427357	0
4	264	2.397464427357	0
4	264	2.397464427357	0.005
4	277	2.397656427357	0
4	277	2.397656427357	0.075
4	282	2.397848427357	0.005
4	282	2.397848427357	0.005
4	282	2.397848427357	0
4	282	2.397848427357	5e-06
4	282	2.397848427357	5e-06
4	291	2.399877518771	0
4	291	2.399877518771	0.05
4	297	2.401509518771	5e-06
4	297	2.401509518771	5e-06
4	300	2.401509518771	0
4	300	2.401509518771	0
4	300	2.401509518771	0.005
4	313	2.401701518771	0
4	313	2.401701518771	0.075
4	317	2.401893518771	0.005
4	317	2.401893518771	0.005
4	317	2.401893518771	0
4	317	2.401893518771	5e-06
4	317	2.401893518771	5e-06
4	325	2.407525518771	1e-06
4	325	2.407525518771	1e-06
4	369	3.384381708223	0
4	369	3.384381708223	5e-06
4	371	3.384701708223	0
4	371	3.384701708223	0
4	371	3.384701708223	0.005
4	373	3.384893708223	0
4	373	3.384893708223	0.075
4	376	3.385309708223	0.005
4	376	3.385309708223	0.005
4	382	3.385501708223	0
4	382	3.385501708223	5e-06
4	382	3.385501708223	5e-06
4	385	3.385502244529	0
4	385	3.385502244529	0.05
4	394	3.387134244529	0.0001
4	394	3.387134244529	0.0001
4	399	3.387134799637	5e-06
4	400	3.387134799637	0
4	400	3.387134799637	0
4	400	3.387134799637	0.005
4	405	3.387326799637	0
4	405	3.387326799637	0.075
4	410	3.387518799637	0.005
4	410	3.387518799637	0.005
4	410	3.387518799637	0
4	410	3.387518799637	5e-06
4	410	3.387518799637	5e-06
4	420	3.388267891051	0
4	420	3.388267891051	0.05
4	425	3.389899891051	5e-06
4	425	3.389899891051	5e-06
4	428	3.389899891051	0
4	428	3.389899891051	0
4	428	3.389899891051	0.005
4	441	3.390091891051	0
4	441	3.390091891051	0.075
4	445	3.390283891051	0.005
4	445	3.390283891051	0.005
4	445	3.390283891051	0
4	445	3.390283891051	5e-06
4	445	3.390283891051	5e-06
4	454	3.391672427357	0
4	454	3.391672427357	0.05
4	459	3.393304427357	5e-06
4	459	3.393304427357	5e-06
4	462	3.393304427357	0
4	462	3.393304427357	0
4	462	3.393304427357	0.005
4	475	3.393496427357	0
4	475	3.393496427357	0.075
4	479	3.393688427357	0.005
4	479	3.393688427357	0.005
4	479	3.393688427357	0
4	479	3.393688427357	5e-06
4	479	3.393688427357	5e-06
4	485	3.396760427357	1e-06
4	485	3.396760427357	1e-06
4	525	4.384381708223	0
4	525	4.384381708223	5e-06
4	527	4.384701708223	0
4	527	4.384701708223	0
4	527	4.384701708223	0.005
4	529	4.384893708223	0
4	529	4.384893708223	0.075
4	532	4.385309708223	0.005
4	532	4.385309708223	0.005
4	538	4.385501708223	0
4	538	4.385501708223	5e-06
4	538	4.385501708223	5e-06
4	541	4.385502244529	0
4	541	4.385502244529	0.05
4	550	4.387134244529	0.0001
4	550	4.387134244529	0.0001
4	555	4.387134799637	5e-06
4	556	4.387134799637	0
4	556	4.387134799637	0
4	556	4.387134799637	0.005
4	561	4.387326799637	0
4	561	4.387326799637	0.075
4	566	4.387518799637	0.005
4	566	4.387518799637	0.005
4	566	4.387518799637	0
4	566	4.387518799637	5e-06
4	566	4.387518799637	5e-06
4	576	4.388907335943	0
4	576	4.388907335943	0.05
4	586	4.390539335943	0.0001
4	586	4.390539335943	0.0001
4	593	4.391819891051	5e-06
4	594	4.391819891051	0
4	594	4.391819891051	0
4	594	4.391819891051	0.005
4	598	4.392011891051	0
4	598	4.392011891051	0.075
4	603	4.392203891051	0.005
4	603	4.392203891051	0.005
4	603	4.392203891051	0
4	603	4.392203891051	5e-06
4	603	4.392203891051	5e-06
4	612	4.392632427357	0
4	612	4.392632427357	0.05
4	622	4.394264427357	0.0001
4	622	4.394264427357	0.0001
4	628	4.394584982465	5e-06
4	629	4.394584982465	0
4	629	4.394584982465	0
4	629	4.394584982465	0.005
4	633	4.394776982465	0
4	633	4.394776982465	0.075
4	639	4.394968982465	0.005
4	639	4.394968982465	0.005
4	639	4.394968982465	0
4	639	4.394968982465	5e-06
4	639	4.394968982465	5e-06
4	652	4.398277518771	0
4	652	4.398277518771	0.05
4	657	4.399909518771	5e-06
4	657	4.399909518771	5e-06
4	660	4.399909518771	0
4	660	4.399909518771	0
4	660	4.399909518771	0.005
4	673	4.400101518771	0
4	673	4.400101518771	0.075
4	677	4.400293518771	0.005
4	677	4.400293518771	0.005
4	677	4.400293518771	0
4	677	4.400293518771	5e-06
4	677	4.400293518771	5e-06
4	694	4.410642610185	0
4	694	4.410642610185	0.05
4	699	4.412274610185	5e-06
4	699	4.412274610185	5e-06
4	702	4.412274610185	0
4	702	4.412274610185	0
4	702	4.412274610185	0.005
4	715	4.412466610185	0
4	715	4.412466610185	0.075
4	719	4.412658610185	0.005
4	719	4.412658610185	0.005
4	719	4.412658610185	0
4	719	4.412658610185	5e-06
4	719	4.412658610185	5e-06
4	726	4.423410610185	1e-06
4	726	4.423410610185	1e-06
4	763	5.384381708223	0
4	763	5.384381708223	5e-06
4	765	5.384701708223	0
4	765	5.384701708223	0
4	765	5.384701708223	0.005
4	767	5.384893708223	0
4	767	5.384893708223	0.075
4	770	5.385309708223	0.005
4	770	5.385309708223	0.005
4	776	5.385501708223	0
4	776	5.385501708223	5e-06
4	776	5.385501708223	5e-06
4	779	5.385502244529	0
4	779	5.385502244529	0.05
4	788	5.387134244529	0.0001
4	788	5.387134244529	0.0001
4	793	5.387134799637	5e-06
4	794	5.387134799637	0
4	794	5.387134799637	0
4	794	5.387134799637	0.005
4	799	5.387326799637	0
4	799	5.387326799637	0.075
4	804	5.387518799637	0.005
4	804	5.387518799637	0.005
4	804	5.387518799637	0
4	804	5.387518799637	5e-06
4	804	5.387518799637	5e-06
4	814	5.388587335943	0
4	814	5.388587335943	0.05
4	824	5.390219335943	0.0001
4	824	5.390219335943	0.0001
4	831	5.391819891051	5e-06
4	832	5.391819891051	0
4	832	5.391819891051	0
4	832	5.391819891051	0.005
4	836	5.392011891051	0
4	836	5.392011891051	0.075
4	841	5.392203891051	0.005
4	841	5.392203891051	0.005
4	841	5.392203891051	0
4	841	5.392203891051	5e-06
4	841	5.392203891051	5e-06
4	850	5.392632982465	0
4	850	5.392632982465	0.05
4	860	5.394264982465	0.0001
4	860	5.394264982465	0.0001
4	867	5.394904427357	5e-06
4	868	5.394904427357	0
4	868	5.394904427357	0
4	868	5.394904427357	0.005
4	872	5.395096427357	0
4	872	5.395096427357	0.075
4	877	5.395288427357	0.005
4	877	5.395288427357	0.005
4	877	5.395288427357	0
4	877	5.395288427357	5e-06
4	877	5.395288427357	5e-06
4	887	5.395716963663	0
4	887	5.395716963663	0.05
4	899	5.397348963663	0.0001
4	899	5.397348963663	0.0001
4	907	5.398949518771	5e-06
4	908	5.398949518771	0
4	908	5.398949518771	0
4	908	5.398949518771	0.005
4	912	5.399141518771	0
4	912	5.399141518771	0.075
4	917	5.399333518771	0.005
4	917	5.399333518771	0.005
4	917	5.399333518771	0
4	917	5.399333518771	5e-06
4	917	5.399333518771	5e-06
4	931	5.405202610185	0
4	931	5.405202610185	0.05
4	937	5.406834610185	5e-06
4	937	5.406834610185	5e-06
4	940	5.406834610185	0
4	940	5.406834610185	0
4	940	5.406834610185	0.005
4	953	5.407026610185	0
4	953	5.407026610185	0.075
4	957	5.407218610185	0.005
4	957	5.407218610185	0.005
4	957	5.407218610185	0
4	957	5.407218610185	5e-06
4	957	5.407218610185	5e-06
4	967	5.408927146491	0
4	967	5.408927146491	0.05
4	974	5.410559146491	5e-06
4	974	5.410559146491	5e-06
4	977	5.410559146491	0
4	977	5.410559146491	0
4	977	5.410559146491	0.005
4	990	5.410751146491	0
4	990	5.410751146491	0.075
4	994	5.410943146491	0.005
4	994	5.410943146491	0.005
4	994	5.410943146491	0
4	994	5.410943146491	5e-06
4	994	5.410943146491	5e-06
4	1007	5.431935146491	1e-06
4	1007	5.431935146491	1e-06
4	1044	6.384381708223	0
4	1044	6.384381708223	5e-06
4	1046	6.384701708223	0
4	1046	6.384701708223	0
4	1046	6.384701708223	0.005
4	1048	6.384893708223	0
4	1048	6.384893708223	0.075
4	1051	6.385309708223	0.005
4	1051	6.385309708223	0.005
4	1057	6.385501708223	0
4	1057	6.385501708223	5e-06
4	1057	6.385501708223	5e-06
4	1060	6.385502244529	0
4	1060	6.385502244529	0.05
4	1069	6.387134244529	0.0001
4	1069	6.387134244529	0.0001
4	1074	6.387134799637	5e-06
4	1075	6.387134799637	0
4	1075	6.387134799637	0
4	1075	6.387134799637	0.005
4	1080	6.387326799637	0
4	1080	6.387326799637	0.075
4	1085	6.387518799637	0.005
4	1085	6.387518799637	0.005
4	1085	6.387518799637	0
4	1085	6.387518799637	5e-06
4	1085	6.387518799637	5e-06
4	1095	6.388267335943	0
4	1095	6.388267335943	0.05
4	1100	6.389899335943	5e-06
4	1100	6.389899335943	5e-06
4	1103	6.389899335943	0
4	1103	6.389899335943	0
4	1103	6.389899335943	0.005
4	1117	6.390091335943	0
4	1117	6.390091335943	0.075
4	1125	6.390283335943	0.005
4	1125	6.390283335943	0.005
4	1125	6.390283335943	0
4	1125	6.390283335943	0.0001
4	1125	6.390283335943	0.0001
4	1132	6.391819891051	5e-06
4	1133	6.391819891051	0
4	1133	6.391819891051	0
4	1133	6.391819891051	0.005
4	1137	6.392011891051	0
4	1137	6.392011891051	0.075
4	1141	6.392203891051	0.005
4	1141	6.392203891051	0.005
4	1141	6.392203891051	0
4	1141	6.392203891051	5e-06
4	1141	6.392203891051	5e-06
4	1150	6.395512982465	0
4	1150	6.395512982465	0.05
4	1157	6.397144982465	5e-06
4	1157	6.397144982465	5e-06
4	1160	6.397144982465	0
4	1160	6.397144982465	0
4	1160	6.397144982465	0.005
4	1173	6.397336982465	0
4	1173	6.397336982465	0.075
4	1177	6.397528982465	0.005
4	1177	6.397528982465	0.005
4	1177	6.397528982465	0
4	1177	6.397528982465	5e-06
4	1177	6.397528982465	5e-06
4	1191	6.403160982465	1e-06
4	1191	6.403160982465	1e-06
4	1222	7.384381708223	0
4	1222	7.384381708223	5e-06
4	1224	7.384701708223	0
4	1224	7.384701708223	0
4	1224	7.384701708223	0.005
4	1226	7.384893708223	0
4	1226	7.384893708223	0.075
4	1229	7.385309708223	0.005
4	1229	7.385309708223	0.005
4	1235	7.385501708223	0
4	1235	7.385501708223	5e-06
4	1235	7.385501708223	5e-06
4	1238	7.385502244529	0
4	1238	7.385502244529	0.05
4	1247	7.387134244529	0.0001
4	1247	7.387134244529	0.0001
4	1252	7.387134799637	5e-06
4	1253	7.387134799637	0
4	1253	7.387134799637	0
4	1253	7.387134799637	0.005
4	1258	7.387326799637	0
4	1258	7.387326799637	0.075
4	1263	7.387518799637	0.005
4	1263	7.387518799637	0.005
4	1263	7.387518799637	0
4	1263	7.387518799637	5e-06
4	1263	7.387518799637	5e-06
4	1273	7.389867335943	0
4	1273	7.389867335943	0.05
4	1283	7.391499335943	0.0001
4	1283	7.391499335943	0.0001
4	1289	7.391819891051	5e-06
4	1290	7.391819891051	0
4	1290	7.391819891051	0
4	1290	7.391819891051	0.005
4	1294	7.392011891051	0
4	1294	7.392011891051	0.075
4	1300	7.392203891051	0.005
4	1300	7.392203891051	0.005
4	1300	7.392203891051	0
4	1300	7.392203891051	5e-06
4	1300	7.392203891051	5e-06
4	1310	7.396152427357	0
4	1310	7.396152427357	0.05
4	1323	7.397784427357	0.0001
4	1323	7.397784427357	0.0001
4	1330	7.398744982465	5e-06
4	1331	7.398744982465	0
4	1331	7.398744982465	0
4	1331	7.398744982465	0.005
4	1335	7.398936982465	0
4	1335	7.398936982465	0.075
4	1340	7.399128982465	0.005
4	1340	7.399128982465	0.005
4	1340	7.399128982465	0
4	1340	7.399128982465	5e-06
4	1340	7.399128982465	5e-06
4	1352	7.405317518771	0
4	1352	7.405317518771	0.05
4	1357	7.406949518771	5e-06
4	1357	7.406949518771	5e-06
4	1360	7.406949518771	0
4	1360	7.406949518771	0
4	1360	7.406949518771	0.005
4	1373	7.407141518771	0
4	1373	7.407141518771	0.075
4	1377	7.407333518771	0.005
4	1377	7.407333518771	0.005
4	1377	7.407333518771	0
4	1377	7.407333518771	5e-06
4	1377	7.407333518771	5e-06
4	1386	7.407762610185	0
4	1386	7.407762610185	0.05
4	1394	7.409394610185	5e-06
4	1394	7.409394610185	5e-06
4	1397	7.409394610185	0
4	1397	7.409394610185	0
4	1397	7.409394610185	0.005
4	1410	7.409586610185	0
4	1410	7.409586610185	0.075
4	1414	7.409778610185	0.005
4	1414	7.409778610185	0.005
4	1414	7.409778610185	0
4	1414	7.409778610185	5e-06
4	1414	7.409778610185	5e-06
4	1423	7.420530610185	1e-06
4	1423	7.420530610185	1e-06
4	1460	8.384381708223	0
4	1460	8.384381708223	5e-06
4	1462	8.384701708223	0
4	1462	8.384701708223	0
4	1462	8.384701708223	0.005
4	1464	8.384893708223	0
4	1464	8.384893708223	0.075
4	1467	8.385309708223	0.005
4	1467	8.385309708223	0.005
4	1472	8.385501708223	0
4	1472	8.385501708223	5e-06
4	1472	8.385501708223	5e-06
4	1475	8.385502799637	0
4	1475	8.385502799637	0.05
4	1480	8.387134799637	5e-06
4	1480	8.387134799637	5e-06
4	1483	8.387134799637	0
4	1483	8.387134799637	0
4	1483	8.387134799637	0.005
4	1496	8.387326799637	0
4	1496	8.387326799637	0.075
4	1500	8.387518799637	0.005
4	1500	8.387518799637	0.005
4	1500	8.387518799637	0
4	1500	8.387518799637	5e-06
4	1500	8.387518799637	5e-06
4	1507	8.387947891051	0
4	1507	8.387947891051	0.05
4	1512	8.389579891051	5e-06
4	1512	8.389579891051	5e-06
4	1515	8.389579891051	0
4	1515	8.389579891051	0
4	1515	8.389579891051	0.005
4	1528	8.389771891051	0
4	1528	8.389771891051	0.075
4	1532	8.389963891051	0.005
4	1532	8.389963891051	0.005
4	1532	8.389963891051	0
4	1532	8.389963891051	5e-06
4	1532	8.389963891051	5e-06
4	1539	8.390392982465	0
4	1539	8.390392982465	0.05
4	1544	8.392024982465	5e-06
4	1544	8.392024982465	5e-06
4	1547	8.392024982465	0
4	1547	8.392024982465	0
4	1547	8.392024982465	0.005
4	1560	8.392216982465	0
4	1560	8.392216982465	0.075
4	1564	8.392408982465	0.005
4	1564	8.392408982465	0.005
4	1564	8.392408982465	0
4	1564	8.392408982465	5e-06
4	1564	8.392408982465	5e-06
4	1571	8.392838073879	0
4	1571	8.392838073879	0.05
4	1576	8.394470073879	5e-06
4	1576	8.394470073879	5e-06
4	1579	8.394470073879	0
4	1579	8.394470073879	0
4	1579	8.394470073879	0.005
4	1592	8.394662073879	0
4	1592	8.394662073879	0.075
5	0	0	0
5	0	0	0
5	2	0	1
5	35	0.437587209977	2
5	37	0.437907209977	3
5	46	0.438707209977	2
5	47	0.439223796483	1
5	130	1.437587209977	2
5	132	1.437907209977	3
5	141	1.438707209977	2
5	178	2.38531025393	3
5	194	2.38713425393	2
5	220	2.390315345344	3
5	233	2.392139345344	2
5	288	2.399684973064	3
5	296	2.401508973064	2
5	321	2.402130064478	1
5	329	2.437587209977	2
5	331	2.437907209977	3
5	340	2.438707209977	2
5	381	3.38531025393	3
5	397	3.38713425393	2
5	417	3.388075345344	3
5	424	3.389899345344	2
5	450	3.390520436758	1
5	493	3.437587209977	2
5	495	3.437907209977	3
5	504	3.438707209977	2
5	537	4.38531025393	3
5	553	4.38713425393	2
5	579	4.389995345344	3
5	592	4.391819345344	2
5	615	4.392760436758	3
5	627	4.394584436758	2
5	690	4.410450064478	3
5	698	4.412274064478	2
5	723	4.412895155892	1
5	727	4.437587209977	2
5	729	4.437907209977	3
5	738	4.438707209977	2
5	775	5.38531025393	3
5	791	5.38713425393	2
5	817	5.389995345344	3
5	830	5.391819345344	2
5	847	5.392440436758	3
5	859	5.394264436758	2
5	890	5.397124973064	3
5	906	5.398948973064	2
5	928	5.405010064478	3
5	936	5.406834064478	2
5	963	5.407455155892	1
5	1008	5.437587209977	2
5	1010	5.437907209977	3
5	1019	5.438707209977	2
5	1056	6.38531025393	3
5	1072	6.38713425393	2
5	1114	6.389995345344	3
5	1131	6.391819345344	2
5	1147	6.395320436758	3
5	1156	6.397144436758	2
5	1182	6.397765528172	1
5	1194	6.437587209977	2
5	1196	6.437907209977	3
5	1205	6.438707209977	2
5	1234	7.38531025393	3
5	1250	7.38713425393	2
5	1276	7.389995345344	3
5	1288	7.391819345344	2
5	1313	7.396920436758	3
5	1329	7.398744436758	2
5	1383	7.407570064478	3
5	1393	7.409394064478	2
5	1418	7.410015155892	1
5	1424	7.437587209977	2
5	1426	7.437907209977	3
5	1435	7.438707209977	2
5	1471	8.38531025393	3
5	1479	8.38713425393	2
5	1504	8.387755345344	3
5	1511	8.389579345344	2
5	1536	8.390200436758	3
5	1543	8.392024436758	2
5	1568	8.392645528172	3
5	1575	8.394469528172	2
6	0	0	0
6	0	0	0
6	2	0	1e-06
6	35	0.437587209977	0
6	35	0.437587209977	5e-06
6	37	0.437907209977	0
6	37	0.437907209977	0
6	37	0.437907209977	0.005
6	39	0.438099209977	0
6	39	0.438099209977	0.075
6	42	0.438515209977	0.005
6	42	0.438515209977	0.005
6	46	0.438707209977	0
6	46	0.438707209977	5e-06
6	46	0.438707209977	5e-06
6	47	0.439223796483	1e-06
6	47	0.439223796483	1e-06
6	130	1.437587209977	0
6	130	1.437587209977	5e-06
6	132	1.437907209977	0
6	132	1.437907209977	0
6	132	1.437907209977	0.005
6	134	1.438099209977	0
6	134	1.438099209977	0.075
6	137	1.438515209977	0.005
6	137	1.438515209977	0.005
6	141	1.438707209977	0
6	141	1.438707209977	5e-06
6	141	1.438707209977	5e-06
6	172	2.38489425393	0
6	172	2.38489425393	0.05
6	177	2.38531025393	5e-06
6	177	2.38531025393	5e-06
6	178	2.38531025393	0
6	178	2.38531025393	0
6	178	2.38531025393	0.005
6	185	2.38550225393	0
6	185	2.38550225393	0.075
6	193	2.38713425393	0.005
6	193	2.38713425393	0.005
6	194	2.38713425393	0
6	194	2.38713425393	5e-06
6	194	2.38713425393	5e-06
6	205	2.387327345344	0
6	205	2.387327345344	0.05
6	212	2.387755345344	5e-06
6	212	2.387755345344	5e-06
6	220	2.390315345344	0
6	220	2.390315345344	0
6	220	2.390315345344	0.005
6	222	2.390507345344	0
6	222	2.390507345344	0.075
6	232	2.392139345344	0.005
6	232	2.392139345344	0.005
6	233	2.392139345344	0
6	233	2.392139345344	5e-06
6	233	2.392139345344	5e-06
6	242	2.392332436758	0
6	242	2.392332436758	0.05
6	248	2.392760436758	5e-06
6	248	2.392760436758	5e-06
6	280	2.397656973064	0
6	280	2.397656973064	0.05
6	286	2.398084973064	5e-06
6	286	2.398084973064	5e-06
6	288	2.399684973064	0
6	288	2.399684973064	0
6	288	2.399684973064	0.005
6	290	2.399876973064	0
6	290	2.399876973064	0.075
6	295	2.401508973064	0.005
6	295	2.401508973064	0.005
6	296	2.401508973064	0
6	296	2.401508973064	5e-06
6	296	2.401508973064	5e-06
6	315	2.401702064478	0
6	315	2.401702064478	0.05
6	320	2.402130064478	5e-06
6	320	2.402130064478	5e-06
6	321	2.402130064478	1e-06
6	321	2.402130064478	1e-06
6	329	2.437587209977	0
6	329	2.437587209977	5e-06
6	331	2.437907209977	0
6	331	2.437907209977	0
6	331	2.437907209977	0.005
6	333	2.438099209977	0
6	333	2.438099209977	0.075
6	336	2.438515209977	0.005
6	336	2.438515209977	0.005
6	340	2.438707209977	0
6	340	2.438707209977	5e-06
6	340	2.438707209977	5e-06
6	375	3.38489425393	0
6	375	3.38489425393	0.05
6	380	3.38531025393	5e-06
6	380	3.38531025393	5e-06
6	381	3.38531025393	0
6	381	3.38531025393	0
6	381	3.38531025393	0.005
6	388	3.38550225393	0
6	388	3.38550225393	0.075
6	396	3.38713425393	0.005
6	396	3.38713425393	0.005
6	397	3.38713425393	0
6	397	3.38713425393	5e-06
6	397	3.38713425393	5e-06
6	408	3.387327345344	0
6	408	3.387327345344	0.05
6	415	3.387755345344	5e-06
6	415	3.387755345344	5e-06
6	417	3.388075345344	0
6	417	3.388075345344	0
6	417	3.388075345344	0.005
6	419	3.388267345344	0
6	419	3.388267345344	0.075
6	423	3.389899345344	0.005
6	423	3.389899345344	0.005
6	424	3.389899345344	0
6	424	3.389899345344	5e-06
6	424	3.389899345344	5e-06
6	443	3.390092436758	0
6	443	3.390092436758	0.05
6	449	3.390520436758	5e-06
6	449	3.390520436758	5e-06
6	450	3.390520436758	1e-06
6	450	3.390520436758	1e-06
6	493	3.437587209977	0
6	493	3.437587209977	5e-06
6	495	3.437907209977	0
6	495	3.437907209977	0
6	495	3.437907209977	0.005
6	497	3.438099209977	0
6	497	3.438099209977	0.075
6	500	3.438515209977	0.005
6	500	3.438515209977	0.005
6	504	3.438707209977	0
6	504	3.438707209977	5e-06
6	504	3.438707209977	5e-06
6	531	4.38489425393	0
6	531	4.38489425393	0.05
6	536	4.38531025393	5e-06
6	536	4.38531025393	5e-06
6	537	4.38531025393	0
6	537	4.38531025393	0
6	537	4.38531025393	0.005
6	544	4.38550225393	0
6	544	4.38550225393	0.075
6	552	4.38713425393	0.005
6	552	4.38713425393	0.005
6	553	4.38713425393	0
6	553	4.38713425393	5e-06
6	553	4.38713425393	5e-06
6	564	4.387327345344	0
6	564	4.387327345344	0.05
6	571	4.387755345344	5e-06
6	571	4.387755345344	5e-06
6	579	4.389995345344	0
6	579	4.389995345344	0
6	579	4.389995345344	0.005
6	581	4.390187345344	0
6	581	4.390187345344	0.075
6	591	4.391819345344	0.005
6	591	4.391819345344	0.005
6	592	4.391819345344	0
6	592	4.391819345344	5e-06
6	592	4.391819345344	5e-06
6	601	4.392012436758	0
6	601	4.392012436758	0.05
6	608	4.392440436758	5e-06
6	608	4.392440436758	5e-06
6	615	4.392760436758	0
6	615	4.392760436758	0
6	615	4.392760436758	0.005
6	617	4.392952436758	0
6	617	4.392952436758	0.075
6	626	4.394584436758	0.005
6	626	4.394584436758	0.005
6	627	4.394584436758	0
6	627	4.394584436758	5e-06
6	627	4.394584436758	5e-06
6	636	4.394777528172	0
6	636	4.394777528172	0.05
6	643	4.395205528172	5e-06
6	643	4.395205528172	5e-06
6	676	4.400102064478	0
6	676	4.400102064478	0.05
6	681	4.400530064478	5e-06
6	681	4.400530064478	5e-06
6	690	4.410450064478	0
6	690	4.410450064478	0
6	690	4.410450064478	0.005
6	693	4.410642064478	0
6	693	4.410642064478	0.075
6	697	4.412274064478	0.005
6	697	4.412274064478	0.005
6	698	4.412274064478	0
6	698	4.412274064478	5e-06
6	698	4.412274064478	5e-06
6	717	4.412467155892	0
6	717	4.412467155892	0.05
6	722	4.412895155892	5e-06
6	722	4.412895155892	5e-06
6	723	4.412895155892	1e-06
6	723	4.412895155892	1e-06
6	727	4.437587209977	0
6	727	4.437587209977	5e-06
6	729	4.437907209977	0
6	729	4.437907209977	0
6	729	4.437907209977	0.005
6	731	4.438099209977	0
6	731	4.438099209977	0.075
6	734	4.438515209977	0.005
6	734	4.438515209977	0.005
6	738	4.438707209977	0
6	738	4.438707209977	5e-06
6	738	4.438707209977	5e-06
6	769	5.38489425393	0
6	769	5.38489425393	0.05
6	774	5.38531025393	5e-06
6	774	5.38531025393	5e-06
6	775	5.38531025393	0
6	775	5.38531025393	0
6	775	5.38531025393	0.005
6	782	5.38550225393	0
6	782	5.38550225393	0.075
6	790	5.38713425393	0.005
6	790	5.38713425393	0.005
6	791	5.38713425393	0
6	791	5.38713425393	5e-06
6	791	5.38713425393	5e-06
6	802	5.387327345344	0
6	802	5.387327345344	0.05
6	809	5.387755345344	5e-06
6	809	5.387755345344	5e-06
6	817	5.389995345344	0
6	817	5.389995345344	0
6	817	5.389995345344	0.005
6	819	5.390187345344	0
6	819	5.390187345344	0.075
6	829	5.391819345344	0.005
6	829	5.391819345344	0.005
6	830	5.391819345344	0
6	830	5.391819345344	5e-06
6	830	5.391819345344	5e-06
6	839	5.392012436758	0
6	839	5.392012436758	0.05
6	845	5.392440436758	5e-06
6	845	5.392440436758	5e-06
6	847	5.392440436758	0
6	847	5.392440436758	0
6	847	5.392440436758	0.005
6	849	5.392632436758	0
6	849	5.392632436758	0.075
6	858	5.394264436758	0.005
6	858	5.394264436758	0.005
6	859	5.394264436758	0
6	859	5.394264436758	5e-06
6	859	5.394264436758	5e-06
6	875	5.395096973064	0
6	875	5.395096973064	0.05
6	883	5.395524973064	5e-06
6	883	5.395524973064	5e-06
6	890	5.397124973064	0
6	890	5.397124973064	0
6	890	5.397124973064	0.005
6	894	5.397316973064	0
6	894	5.397316973064	0.075
6	905	5.398948973064	0.005
6	905	5.398948973064	0.005
6	906	5.398948973064	0
6	906	5.398948973064	5e-06
6	906	5.398948973064	5e-06
6	915	5.399142064478	0
6	915	5.399142064478	0.05
6	921	5.399570064478	5e-06
6	921	5.399570064478	5e-06
6	928	5.405010064478	0
6	928	5.405010064478	0
6	928	5.405010064478	0.005
6	930	5.405202064478	0
6	930	5.405202064478	0.075
6	935	5.406834064478	0.005
6	935	5.406834064478	0.005
6	936	5.406834064478	0
6	936	5.406834064478	5e-06
6	936	5.406834064478	5e-06
6	955	5.407027155892	0
6	955	5.407027155892	0.05
6	962	5.407455155892	5e-06
6	962	5.407455155892	5e-06
6	963	5.407455155892	1e-06
6	963	5.407455155892	1e-06
6	1008	5.437587209977	0
6	1008	5.437587209977	5e-06
6	1010	5.437907209977	0
6	1010	5.437907209977	0
6	1010	5.437907209977	0.005
6	1012	5.438099209977	0
6	1012	5.438099209977	0.075
6	1015	5.438515209977	0.005
6	1015	5.438515209977	0.005
6	1019	5.438707209977	0
6	1019	5.438707209977	5e-06
6	1019	5.438707209977	5e-06
6	1050	6.38489425393	0
6	1050	6.38489425393	0.05
6	1055	6.38531025393	5e-06
6	1055	6.38531025393	5e-06
6	1056	6.38531025393	0
6	1056	6.38531025393	0
6	1056	6.38531025393	0.005
6	1063	6.38550225393	0
6	1063	6.38550225393	0.075
6	1071	6.38713425393	0.005
6	1071	6.38713425393	0.005
6	1072	6.38713425393	0
6	1072	6.38713425393	5e-06
6	1072	6.38713425393	5e-06
6	1083	6.387327345344	0
6	1083	6.387327345344	0.05
6	1090	6.387755345344	5e-06
6	1090	6.387755345344	5e-06
6	1114	6.389995345344	0
6	1114	6.389995345344	0
6	1114	6.389995345344	0.005
6	1122	6.390187345344	0
6	1122	6.390187345344	0.075
6	1130	6.391819345344	0.005
6	1130	6.391819345344	0.005
6	1131	6.391819345344	0
6	1131	6.391819345344	5e-06
6	1131	6.391819345344	5e-06
6	1139	6.392012436758	0
6	1139	6.392012436758	0.05
6	1144	6.392440436758	5e-06
6	1144	6.392440436758	5e-06
6	1147	6.395320436758	0
6	1147	6.395320436758	0
6	1147	6.395320436758	0.005
6	1149	6.395512436758	0
6	1149	6.395512436758	0.075
6	1155	6.397144436758	0.005
6	1155	6.397144436758	0.005
6	1156	6.397144436758	0
6	1156	6.397144436758	5e-06
6	1156	6.397144436758	5e-06
6	1175	6.397337528172	0
6	1175	6.397337528172	0.05
6	1181	6.397765528172	5e-06
6	1181	6.397765528172	5e-06
6	1182	6.397765528172	1e-06
6	1182	6.397765528172	1e-06
6	1194	6.437587209977	0
6	1194	6.437587209977	5e-06
6	1196	6.437907209977	0
6	1196	6.437907209977	0
6	1196	6.437907209977	0.005
6	1198	6.438099209977	0
6	1198	6.438099209977	0.075
6	1201	6.438515209977	0.005
6	1201	6.438515209977	0.005
6	1205	6.438707209977	0
6	1205	6.438707209977	5e-06
6	1205	6.438707209977	5e-06
6	1228	7.38489425393	0
6	1228	7.38489425393	0.05
6	1233	7.38531025393	5e-06
6	1233	7.38531025393	5e-06
6	1234	7.38531025393	0
6	1234	7.38531025393	0
6	1234	7.38531025393	0.005
6	1241	7.38550225393	0
6	1241	7.38550225393	0.075
6	1249	7.38713425393	0.005
6	1249	7.38713425393	0.005
6	1250	7.38713425393	0
6	1250	7.38713425393	5e-06
6	1250	7.38713425393	5e-06
6	1261	7.387327345344	0
6	1261	7.387327345344	0.05
6	1268	7.387755345344	5e-06
6	1268	7.387755345344	5e-06
6	1276	7.389995345344	0
6	1276	7.389995345344	0
6	1276	7.389995345344	0.005
6	1278	7.390187345344	0
6	1278	7.390187345344	0.075
6	1287	7.391819345344	0.005
6	1287	7.391819345344	0.005
6	1288	7.391819345344	0
6	1288	7.391819345344	5e-06
6	1288	7.391819345344	5e-06
6	1297	7.392012436758	0
6	1297	7.392012436758	0.05
6	1304	7.392440436758	5e-06
6	1304	7.392440436758	5e-06
6	1313	7.396920436758	0
6	1313	7.396920436758	0
6	1313	7.396920436758	0.005
6	1315	7.397112436758	0
6	1315	7.397112436758	0.075
6	1328	7.398744436758	0.005
6	1328	7.398744436758	0.005
6	1329	7.398744436758	0
6	1329	7.398744436758	5e-06
6	1329	7.398744436758	5e-06
6	1338	7.398937528172	0
6	1338	7.398937528172	0.05
6	1344	7.399365528172	5e-06
6	1344	7.399365528172	5e-06
6	1376	7.407142064478	0
6	1376	7.407142064478	0.05
6	1381	7.407570064478	5e-06
6	1381	7.407570064478	5e-06
6	1383	7.407570064478	0
6	1383	7.407570064478	0
6	1383	7.407570064478	0.005
6	1385	7.407762064478	0
6	1385	7.407762064478	0.075
6	1392	7.409394064478	0.005
6	1392	7.409394064478	0.005
6	1393	7.409394064478	0
6	1393	7.409394064478	5e-06
6	1393	7.409394064478	5e-06
6	1412	7.409587155892	0
6	1412	7.409587155892	0.05
6	1417	7.410015155892	5e-06
6	1417	7.410015155892	5e-06
6	1418	7.410015155892	1e-06
6	1418	7.410015155892	1e-06
6	1424	7.437587209977	0
6	1424	7.437587209977	5e-06
6	1426	7.437907209977	0
6	1426	7.437907209977	0
6	1426	7.437907209977	0.005
6	1428	7.438099209977	0
6	1428	7.438099209977	0.075
6	1431	7.438515209977	0.005
[...]
15	858	5.394264436758	-0.0020279530757987
15	875	5.395096973064	-0.0020279572384802
15	883	5.395524973064	-0.0020493572384802
15	890	5.397124973064	-0.0020493652384802
15	894	5.397316973064	-0.0020503252384802
15	905	5.398948973064	-0.0021727252384802
15	915	5.399142064478	-0.0021727262039373
15	921	5.399570064478	-0.0021941262039373
15	928	5.405010064478	-0.0021941534039373
15	930	5.405202064478	-0.0021951134039373
15	935	5.406834064478	-0.0023175134039373
15	955	5.407027155892	-0.0023175143693944
15	962	5.407455155892	-0.0023389143693944
15	1008	5.437587209977	-0.0023389445014484
15	1010	5.437907209977	-0.0023389461014484
15	1012	5.438099209977	-0.0023399061014484
15	1015	5.438515209977	-0.0023711061014484
15	1019	5.438707209977	-0.0023720661014484
15	1050	6.38489425393	-0.0023767970366682
15	1055	6.38531025393	-0.0023975970366682
15	1063	6.38550225393	-0.0023985570366682
15	1071	6.38713425393	-0.0025209570366682
15	1083	6.387327345344	-0.0025209580021253
15	1090	6.387755345344	-0.0025423580021253
15	1114	6.389995345344	-0.0025423692021253
15	1122	6.390187345344	-0.0025433292021253
15	1130	6.391819345344	-0.0026657292021253
15	1139	6.392012436758	-0.0026657301675824
15	1144	6.392440436758	-0.0026871301675824
15	1147	6.395320436758	-0.0026871445675824
15	1149	6.395512436758	-0.0026881045675824
15	1155	6.397144436758	-0.0028105045675824
15	1175	6.397337528172	-0.0028105055330394
15	1181	6.397765528172	-0.0028319055330394
15	1194	6.437587209977	-0.0028319453547212
15	1196	6.437907209977	-0.0028319469547212
15	1198	6.438099209977	-0.0028329069547212
15	1201	6.438515209977	-0.0028641069547212
15	1205	6.438707209977	-0.0028650669547212
15	1228	7.38489425393	-0.002869797889941
15	1233	7.38531025393	-0.002890597889941
15	1241	7.38550225393	-0.002891557889941
15	1249	7.38713425393	-0.003013957889941
15	1261	7.387327345344	-0.0030139588553981
15	1268	7.387755345344	-0.0030353588553981
15	1276	7.389995345344	-0.0030353700553981
15	1278	7.390187345344	-0.0030363300553981
15	1287	7.391819345344	-0.0031587300553981
15	1297	7.392012436758	-0.0031587310208551
15	1304	7.392440436758	-0.0031801310208551
15	1313	7.396920436758	-0.0031801534208551
15	1315	7.397112436758	-0.0031811134208551
15	1328	7.398744436758	-0.0033035134208551
15	1338	7.398937528172	-0.0033035143863122
15	1344	7.399365528172	-0.0033249143863122
15	1376	7.407142064478	-0.0033249532689937
15	1381	7.407570064478	-0.0033463532689937
15	1385	7.407762064478	-0.0033473132689937
15	1392	7.409394064478	-0.0034697132689937
15	1412	7.409587155892	-0.0034697142344508
15	1417	7.410015155892	-0.0034911142344508
15	1424	7.437587209977	-0.0034911418065049
15	1426	7.437907209977	-0.0034911434065049
15	1428	7.438099209977	-0.0034921034065049
15	1431	7.438515209977	-0.0035233034065049
15	1435	7.438707209977	-0.0035242634065049
15	1466	8.38489425393	-0.0035289943417247
15	1470	8.38531025393	-0.0035497943417247
15	1474	8.38550225393	-0.0035507543417247
15	1478	8.38713425393	-0.0036731543417247
15	1498	8.387327345344	-0.0036731553071817
15	1503	8.387755345344	-0.0036945553071817
15	1506	8.387947345344	-0.0036955153071817
15	1510	8.389579345344	-0.0038179153071817
15	1530	8.389772436758	-0.0038179162726388
15	1535	8.390200436758	-0.0038393162726388
15	1538	8.390392436758	-0.0038402762726388
15	1542	8.392024436758	-0.0039626762726388
15	1562	8.392217528172	-0.0039626772380959
15	1567	8.392645528172	-0.0039840772380959
15	1570	8.392837528172	-0.0039850372380959
15	1574	8.394469528172	-0.0041074372380959
16	35	0.437587209977	1
16	37	0.437907209977	0
16	46	0.438707209977	1
16	47	0.439223796483	0
16	130	1.437587209977	1
16	132	1.437907209977	0
16	141	1.438707209977	1
16	172	2.38489425393	3
16	177	2.38531025393	1
16	178	2.38531025393	0
16	194	2.38713425393	1
16	205	2.387327345344	3
16	212	2.387755345344	1
16	220	2.390315345344	0
16	233	2.392139345344	1
16	242	2.392332436758	3
16	248	2.392760436758	1
16	280	2.397656973064	3
16	286	2.398084973064	1
16	288	2.399684973064	0
16	296	2.401508973064	1
16	315	2.401702064478	3
16	320	2.402130064478	1
16	321	2.402130064478	0
16	329	2.437587209977	1
16	331	2.437907209977	0
16	340	2.438707209977	1
16	375	3.38489425393	3
16	380	3.38531025393	1
16	381	3.38531025393	0
16	397	3.38713425393	1
16	408	3.387327345344	3
16	415	3.387755345344	1
16	417	3.388075345344	0
16	424	3.389899345344	1
16	443	3.390092436758	3
16	449	3.390520436758	1
16	450	3.390520436758	0
16	493	3.437587209977	1
16	495	3.437907209977	0
16	504	3.438707209977	1
16	531	4.38489425393	3
16	536	4.38531025393	1
16	537	4.38531025393	0
16	553	4.38713425393	1
16	564	4.387327345344	3
16	571	4.387755345344	1
16	579	4.389995345344	0
16	592	4.391819345344	1
16	601	4.392012436758	3
16	608	4.392440436758	1
16	615	4.392760436758	0
16	627	4.394584436758	1
16	636	4.394777528172	3
16	643	4.395205528172	1
16	676	4.400102064478	3
16	681	4.400530064478	1
16	690	4.410450064478	0
16	698	4.412274064478	1
16	717	4.412467155892	3
16	722	4.412895155892	1
16	723	4.412895155892	0
16	727	4.437587209977	1
16	729	4.437907209977	0
16	738	4.438707209977	1
16	769	5.38489425393	3
16	774	5.38531025393	1
16	775	5.38531025393	0
16	791	5.38713425393	1
16	802	5.387327345344	3
16	809	5.387755345344	1
16	817	5.389995345344	0
16	830	5.391819345344	1
16	839	5.392012436758	3
16	845	5.392440436758	1
16	847	5.392440436758	0
16	859	5.394264436758	1
16	875	5.395096973064	3
16	883	5.395524973064	1
16	890	5.397124973064	0
16	906	5.398948973064	1
16	915	5.399142064478	3
16	921	5.399570064478	1
16	928	5.405010064478	0
16	936	5.406834064478	1
16	955	5.407027155892	3
16	962	5.407455155892	1
16	963	5.407455155892	0
16	1008	5.437587209977	1
16	1010	5.437907209977	0
16	1019	5.438707209977	1
16	1050	6.38489425393	3
16	1055	6.38531025393	1
16	1056	6.38531025393	0
16	1072	6.38713425393	1
16	1083	6.387327345344	3
16	1090	6.387755345344	1
16	1114	6.389995345344	0
16	1131	6.391819345344	1
16	1139	6.392012436758	3
16	1144	6.392440436758	1
16	1147	6.395320436758	0
16	1156	6.397144436758	1
16	1175	6.397337528172	3
16	1181	6.397765528172	1
16	1182	6.397765528172	0
16	1194	6.437587209977	1
16	1196	6.437907209977	0
16	1205	6.438707209977	1
16	1228	7.38489425393	3
16	1233	7.38531025393	1
16	1234	7.38531025393	0
16	1250	7.38713425393	1
16	1261	7.387327345344	3
16	1268	7.387755345344	1
16	1276	7.389995345344	0
16	1288	7.391819345344	1
16	1297	7.392012436758	3
16	1304	7.392440436758	1
16	1313	7.396920436758	0
16	1329	7.398744436758	1
16	1338	7.398937528172	3
16	1344	7.399365528172	1
16	1376	7.407142064478	3
16	1381	7.407570064478	1
16	1383	7.407570064478	0
16	1393	7.409394064478	1
16	1412	7.409587155892	3
16	1417	7.410015155892	1
16	1418	7.410015155892	0
16	1424	7.437587209977	1
16	1426	7.437907209977	0
16	1435	7.438707209977	1
16	1466	8.38489425393	3
16	1470	8.38531025393	1
16	1471	8.38531025393	0
16	1479	8.38713425393	1
16	1498	8.387327345344	3
16	1503	8.387755345344	1
16	1504	8.387755345344	0
16	1511	8.389579345344	1
16	1530	8.389772436758	3
16	1535	8.390200436758	1
16	1536	8.390200436758	0
16	1543	8.392024436758	1
16	1562	8.392217528172	3
16	1567	8.392645528172	1
16	1568	8.392645528172	0
16	1575	8.394469528172	1
17	37	0.437907209977	1
17	39	0.438099209977	2
17	42	0.438515209977	1
17	46	0.438707209977	0
17	132	1.437907209977	1
17	134	1.438099209977	2
17	137	1.438515209977	1
17	141	1.438707209977	0
17	178	2.38531025393	1
17	185	2.38550225393	2
17	193	2.38713425393	1
17	194	2.38713425393	0
17	220	2.390315345344	1
17	222	2.390507345344	2
17	232	2.392139345344	1
17	233	2.392139345344	0
17	288	2.399684973064	1
17	290	2.399876973064	2
17	295	2.401508973064	1
17	296	2.401508973064	0
17	331	2.437907209977	1
17	333	2.438099209977	2
17	336	2.438515209977	1
17	340	2.438707209977	0
17	381	3.38531025393	1
17	388	3.38550225393	2
17	396	3.38713425393	1
17	397	3.38713425393	0
17	417	3.388075345344	1
17	419	3.388267345344	2
17	423	3.389899345344	1
17	424	3.389899345344	0
17	495	3.437907209977	1
17	497	3.438099209977	2
17	500	3.438515209977	1
17	504	3.438707209977	0
17	537	4.38531025393	1
17	544	4.38550225393	2
17	552	4.38713425393	1
17	553	4.38713425393	0
17	579	4.389995345344	1
17	581	4.390187345344	2
17	591	4.391819345344	1
17	592	4.391819345344	0
17	615	4.392760436758	1
17	617	4.392952436758	2
17	626	4.394584436758	1
17	627	4.394584436758	0
17	690	4.410450064478	1
17	693	4.410642064478	2
17	697	4.412274064478	1
17	698	4.412274064478	0
17	729	4.437907209977	1
17	731	4.438099209977	2
17	734	4.438515209977	1
17	738	4.438707209977	0
17	775	5.38531025393	1
17	782	5.38550225393	2
17	790	5.38713425393	1
17	791	5.38713425393	0
17	817	5.389995345344	1
17	819	5.390187345344	2
17	829	5.391819345344	1
17	830	5.391819345344	0
17	847	5.392440436758	1
17	849	5.392632436758	2
17	858	5.394264436758	1
17	859	5.394264436758	0
17	890	5.397124973064	1
17	894	5.397316973064	2
17	905	5.398948973064	1
17	906	5.398948973064	0
17	928	5.405010064478	1
17	930	5.405202064478	2
17	935	5.406834064478	1
17	936	5.406834064478	0
17	1010	5.437907209977	1
17	1012	5.438099209977	2
17	1015	5.438515209977	1
17	1019	5.438707209977	0
17	1056	6.38531025393	1
17	1063	6.38550225393	2
17	1071	6.38713425393	1
17	1072	6.38713425393	0
17	1114	6.389995345344	1
17	1122	6.390187345344	2
17	1130	6.391819345344	1
17	1131	6.391819345344	0
17	1147	6.395320436758	1
17	1149	6.395512436758	2
17	1155	6.397144436758	1
17	1156	6.397144436758	0
17	1196	6.437907209977	1
17	1198	6.438099209977	2
17	1201	6.438515209977	1
17	1205	6.438707209977	0
17	1234	7.38531025393	1
17	1241	7.38550225393	2
17	1249	7.38713425393	1
17	1250	7.38713425393	0
17	1276	7.389995345344	1
17	1278	7.390187345344	2
17	1287	7.391819345344	1
17	1288	7.391819345344	0
17	1313	7.396920436758	1
17	1315	7.397112436758	2
17	1328	7.398744436758	1
17	1329	7.398744436758	0
17	1383	7.407570064478	1
17	1385	7.407762064478	2
17	1392	7.409394064478	1
17	1393	7.409394064478	0
17	1426	7.437907209977	1
17	1428	7.438099209977	2
17	1431	7.438515209977	1
17	1435	7.438707209977	0
17	1471	8.38531025393	1
17	1474	8.38550225393	2
17	1478	8.38713425393	1
17	1479	8.38713425393	0
17	1504	8.387755345344	1
17	1506	8.387947345344	2
17	1510	8.389579345344	1
17	1511	8.389579345344	0
17	1536	8.390200436758	1
17	1538	8.390392436758	2
17	1542	8.392024436758	1
17	1543	8.392024436758	0
17	1568	8.392645528172	1
17	1570	8.392837528172	2
17	1574	8.394469528172	1
17	1575	8.394469528172	0
18	49	0.787201139982	10
18	54	0.845585809075	10
18	63	1.163941949917	10
18	343	2.836153150242	10
18	351	2.987384003907	10
18	507	3.629093176585	10
18	745	5.145629150575	10
18	1022	5.452909502728	10
18	1186	6.402404086225	10
18	1438	7.501316553776	10
19	51	0.787201139982	18
19	55	0.845585809075	18
19	64	1.163941949917	18
19	344	2.836153150242	18
19	352	2.987384003907	18
19	508	3.629093176585	18
19	746	5.145629150575	18
19	1023	5.452909502728	18
19	1187	6.402404086225	18
19	1439	7.501316553776	18
20	53	0.787201139982	1
20	57	0.845585809075	2
20	66	1.163941949917	3
20	142	1.439223796483	2
20	341	2.439223796483	1
20	346	2.836153150242	2
20	354	2.987384003907	3
20	505	3.439223796483	2
20	510	3.629093176585	3
20	739	4.439223796483	2
20	748	5.145629150575	3
20	1020	5.439223796483	2
20	1025	5.452909502728	3
20	1189	6.402404086225	4
20	1206	6.439223796483	3
20	1436	7.439223796483	2
20	1441	7.501316553776	3
20	1504	8.387755345344	2
20	1536	8.390200436758	1
20	1568	8.392645528172	0
21	58	1.038159300664	10
21	144	1.687605648915	10
21	162	2.341488216136	10
21	347	2.840360225152	10
21	741	4.881252441064	10
21	999	5.416818161292	10
21	1026	6.01456423811	10
21	1456	8.340915299804	10
22	60	1.038159300664	18
22	145	1.687605648915	18
22	163	2.341488216136	18
22	348	2.840360225152	18
22	742	4.881252441064	18
22	1000	5.416818161292	18
22	1027	6.01456423811	18
22	1457	8.340915299804	18
23	62	1.038159300664	1
23	79	1.299171191761	0
23	147	1.687605648915	1
23	160	2.299171191761	0
23	165	2.341488216136	1
23	350	2.840360225152	2
23	367	3.299171191761	1
23	523	4.299171191761	0
23	744	4.881252441064	1
23	761	5.299171191761	0
23	1002	5.416818161292	1
23	1029	6.01456423811	2
23	1042	6.299171191761	1
23	1220	7.299171191761	0
23	1459	8.340915299804	1
24	79	1.299171191761	0.261011891097
24	160	2.299171191761	0.611565542846
24	367	3.299171191761	0.957682975625
24	523	4.299171191761	1.458810966609
24	761	5.299171191761	0.417918750697
24	1042	6.299171191761	0.882353030469
24	1220	7.299171191761	1.284606953651
25	105	1.387134244529	38
25	265	2.397464427357	38
25	301	2.401509518771	38
25	429	3.389899891051	38
25	463	3.393304427357	38
25	661	4.399909518771	38
25	703	4.412274610185	38
25	941	5.406834610185	38
25	978	5.410559146491	38
25	1104	6.389899335943	38
25	1161	6.397144982465	38
25	1361	7.406949518771	38
25	1398	7.409394610185	38
25	1484	8.387134799637	38
25	1516	8.389579891051	38
25	1548	8.392024982465	38
25	1580	8.394470073879	38
26	106	1.387134244529	56
26	266	2.397464427357	56
26	302	2.401509518771	56
26	430	3.389899891051	56
26	464	3.393304427357	56
26	662	4.399909518771	56
26	704	4.412274610185	56
26	942	5.406834610185	56
26	979	5.410559146491	56
26	1105	6.389899335943	56
26	1162	6.397144982465	56
26	1362	7.406949518771	56
26	1399	7.409394610185	56
26	1485	8.387134799637	56
26	1517	8.389579891051	56
26	1549	8.392024982465	56
26	1581	8.394470073879	56
27	106	1.387134244529	1
27	106	1.387134244529	0
27	266	2.397464427357	1
27	266	2.397464427357	0
27	302	2.401509518771	1
27	302	2.401509518771	0
27	430	3.389899891051	1
27	430	3.389899891051	0
27	464	3.393304427357	1
27	464	3.393304427357	0
27	662	4.399909518771	1
27	662	4.399909518771	0
27	704	4.412274610185	1
27	704	4.412274610185	0
27	942	5.406834610185	1
27	942	5.406834610185	0
27	979	5.410559146491	1
27	979	5.410559146491	0
27	1105	6.389899335943	1
27	1105	6.389899335943	0
27	1162	6.397144982465	1
27	1162	6.397144982465	0
27	1362	7.406949518771	1
27	1362	7.406949518771	0
27	1399	7.409394610185	1
27	1399	7.409394610185	0
27	1485	8.387134799637	1
27	1485	8.387134799637	0
27	1517	8.389579891051	1
27	1517	8.389579891051	0
27	1549	8.392024982465	1
27	1549	8.392024982465	0
27	1581	8.394470073879	1
27	1581	8.394470073879	0
28	106	1.387134244529	0
28	266	2.397464427357	0
28	302	2.401509518771	0
28	430	3.389899891051	0
28	464	3.393304427357	0
28	662	4.399909518771	0
28	704	4.412274610185	0
28	942	5.406834610185	0
28	979	5.410559146491	0
28	1105	6.389899335943	0
28	1162	6.397144982465	0
28	1362	7.406949518771	0
28	1399	7.409394610185	0
28	1485	8.387134799637	0
28	1517	8.389579891051	0
28	1549	8.392024982465	0
28	1581	8.394470073879	0
29	108	1.387140004529	64
29	268	2.397470187357	64
29	304	2.401515278771	64
29	432	3.389905651051	64
29	466	3.393310187357	64
29	664	4.399915278771	64
29	706	4.412280370185	64
29	944	5.406840370185	64
29	981	5.410564906491	64
29	1107	6.389905095943	64
29	1164	6.397150742465	64
29	1364	7.406955278771	64
29	1401	7.409400370185	64
29	1487	8.387140559637	64
29	1519	8.389585651051	64
29	1551	8.392030742465	64
29	1583	8.394475833879	64
30	109	1.387140054529	64
30	269	2.397470237357	64
30	305	2.401515328771	64
30	433	3.389905701051	64
30	467	3.393310237357	64
30	665	4.399915328771	64
30	707	4.412280420185	64
30	945	5.406840420185	64
30	982	5.410564956491	64
30	1108	6.389905145943	64
30	1165	6.397150792465	64
30	1365	7.406955328771	64
30	1402	7.409400420185	64
30	1488	8.387140609637	64
30	1520	8.389585701051	64
30	1552	8.392030792465	64
30	1584	8.394475883879	64
31	109	1.387140054529	64
31	269	2.397470237357	64
31	305	2.401515328771	64
31	433	3.389905701051	64
31	467	3.393310237357	64
31	665	4.399915328771	64
31	707	4.412280420185	64
31	945	5.406840420185	64
31	982	5.410564956491	64
31	1108	6.389905145943	64
31	1165	6.397150792465	64
31	1365	7.406955328771	64
31	1402	7.409400420185	64
31	1488	8.387140609637	64
31	1520	8.389585701051	64
31	1552	8.392030792465	64
31	1584	8.394475883879	64
32	110	1.387140054529	46
32	270	2.397470237357	46
32	306	2.401515328771	46
32	434	3.389905701051	46
32	468	3.393310237357	46
32	666	4.399915328771	46
32	708	4.412280420185	46
32	946	5.406840420185	46
32	983	5.410564956491	46
32	1109	6.389905145943	46
32	1166	6.397150792465	46
32	1366	7.406955328771	46
32	1403	7.409400420185	46
32	1489	8.387140609637	46
32	1521	8.389585701051	46
32	1553	8.392030792465	46
32	1585	8.394475883879	46
33	112	1.387140054529	18
33	272	2.397470237357	18
33	308	2.401515328771	18
33	436	3.389905701051	18
33	470	3.393310237357	18
33	668	4.399915328771	18
33	710	4.412280420185	18
33	948	5.406840420185	18
33	985	5.410564956491	18
33	1111	6.389905145943	18
33	1168	6.397150792465	18
33	1368	7.406955328771	18
33	1405	7.409400420185	18
33	1491	8.387140609637	18
33	1523	8.389585701051	18
33	1555	8.392030792465	18
33	1587	8.394475883879	18
34	112	1.387140054529	1
34	272	2.397470237357	2
34	308	2.401515328771	3
34	436	3.389905701051	4
34	470	3.393310237357	5
34	668	4.399915328771	6
34	710	4.412280420185	7
34	948	5.406840420185	8
34	985	5.410564956491	9
34	1111	6.389905145943	10
34	1168	6.397150792465	11
34	1368	7.406955328771	12
34	1405	7.409400420185	13
34	1491	8.387140609637	14
34	1523	8.389585701051	15
34	1555	8.392030792465	16
34	1587	8.394475883879	17
35	113	1.387140054529	10
35	273	2.397470237357	10
35	309	2.401515328771	10
35	437	3.389905701051	10
35	471	3.393310237357	10
35	669	4.399915328771	10
35	711	4.412280420185	10
35	949	5.406840420185	10
35	986	5.410564956491	10
35	1112	6.389905145943	10
35	1169	6.397150792465	10
35	1369	7.406955328771	10
35	1406	7.409400420185	10
35	1492	8.387140609637	10
35	1524	8.389585701051	10
35	1556	8.392030792465	10
35	1588	8.394475883879	10
36	113	0.1	0
36	113	0.2	0
36	113	0.3	0
36	113	0.4	0
36	113	0.5	0
36	113	0.6	0
36	113	0.7	0
36	113	0.8	0
36	113	0.9	0
36	113	1	0
36	113	1.1	0
36	113	1.2	0
36	113	1.3	0
36	273	1.4	800
36	273	1.5	0
36	273	1.6	0
36	273	1.7	0
36	273	1.8	0
36	273	1.9	0
36	273	2	0
36	273	2.1	0
36	273	2.2	0
36	273	2.3	0
36	309	2.4	800
36	437	2.5	800
36	437	2.6	0
36	437	2.7	0
36	437	2.8	0
36	437	2.9	0
36	437	3	0
36	437	3.1	0
36	437	3.2	0
36	437	3.3	0
36	669	3.4	1600
36	669	3.5	0
36	669	3.6	0
36	669	3.7	0
36	669	3.8	0
36	669	3.9	0
36	669	4	0
36	669	4.1	0
36	669	4.2	0
36	669	4.3	0
36	711	4.4	800
36	949	4.5	800
36	949	4.6	0
36	949	4.7	0
36	949	4.8	0
36	949	4.9	0
36	949	5	0
36	949	5.1	0
36	949	5.2	0
36	949	5.3	0
36	949	5.4	0
36	1112	5.5	1600
36	1112	5.6	0
36	1112	5.7	0
36	1112	5.8	0
36	1112	5.9	0
36	1112	6	0
36	1112	6.1	0
36	1112	6.2	0
36	1112	6.3	0
36	1369	6.4	1600
36	1369	6.5	0
36	1369	6.6	0
36	1369	6.7	0
36	1369	6.8	0
36	1369	6.9	0
36	1369	7	0
36	1369	7.1	0
36	1369	7.2	0
36	1369	7.3	0
36	1369	7.4	0
36	1492	7.5	1600
36	1492	7.6	0
36	1492	7.7	0
36	1492	7.8	0
36	1492	7.9	0
36	1492	8	0
36	1492	8.1	0
36	1492	8.2	0
36	1492	8.3	0
37	113	1.387140054529	0.348980753865
37	273	2.397470237357	0.709864588442
37	309	2.401515328771	1.614314188789
37	437	3.389905701051	2.544319891976
37	471	3.393310237357	1.051822021221
37	669	4.399915328771	1.559555103619
37	711	4.412280420185	3.248338470268
37	949	5.406840420185	2.570687269943
37	986	5.410564956491	0.529312515427
37	1112	6.389905145943	0.973086984651
37	1169	6.397150792465	3.409766788558
37	1369	7.406955328771	1.392391090661
37	1406	7.409400420185	3.7803072436
37	1492	8.387140609637	3.241511459062
37	1524	8.389585701051	2.936676198323
37	1556	8.392030792465	1.98962670624
37	1588	8.394475883879	0.893159330103
38	113	1.387140054529	0
38	273	2.397470237357	1
38	309	2.401515328771	0
38	437	3.389905701051	1
38	471	3.393310237357	2
38	669	4.399915328771	3
38	711	4.412280420185	2
38	949	5.406840420185	3
38	986	5.410564956491	4
38	1112	6.389905145943	5
38	1169	6.397150792465	4
38	1369	7.406955328771	6
38	1406	7.409400420185	5
38	1492	8.387140609637	6
38	1524	8.389585701051	7
38	1556	8.392030792465	8
38	1588	8.394475883879	9
39	142	1.439223796483	0.652022656501
39	341	2.439223796483	1.593637987408
39	505	3.439223796483	2.275281846566
39	739	4.439223796483	1.603070646241
39	1020	5.439223796483	2.451839792576
39	1206	6.439223796483	2.810130619898
39	1436	7.439223796483	2.293594645908
39	1504	8.387755345344	2.934845842616
39	1536	8.390200436758	1.987796350533
39	1568	8.392645528172	0.891328974396

