version 2
run XMac-0-20190825-11:25:13-5277
attr configname XMac
attr datetime 20190825-11:25:13
attr experiment XMac
attr inifile omnetpp.ini
attr iterationvars ""
attr iterationvarsf ""
attr measurement ""
attr network SensorNetworkShowcaseA
attr processid 5277
attr repetition 0
attr replication #0
attr resultdir results
attr runnumber 0
attr seedset 0
param **.wlan[*].mac.typename "\"XMac\""
param *.gateway.wlan[*].mac.slotDuration 1s
param *.sensor*.wlan[*].mac.slotDuration 1s
param **.wlan[*].typename "\"WirelessInterface\""
param **.wlan[*].radio.typename "\"ApskScalarRadio\""
param **.arp.typename "\"GlobalArp\""
param *.gateway.forwarding true
param *.configurator.addStaticRoutes false
param *.configurator.config "xmldoc(\"config.xml\")"
param **.radio.carrierFrequency 2.45GHz
param **.radio.bandwidth 2.8MHz
param **.radio.transmitter.bitrate "19200 bps"
param **.radio.transmitter.headerLength 8b
param **.radio.transmitter.preambleDuration 0.0001s
param **.radio.transmitter.power 2.24mW
param **.radio.receiver.energyDetection -90dBm
param **.radio.receiver.sensitivity -100dBm
param **.radio.receiver.snirThreshold -8dB
param *.radioMedium.backgroundNoise.power -110dBm
param **.mac.headerLength 8b
param *.sensor*.numApps 1
param *.sensor*.app[0].typename "\"UdpBasicApp\""
param *.sensor*.app[0].destAddresses "\"server\""
param *.sensor*.app[0].destPort 1000
param *.sensor*.app[0].sendInterval exponential(1s)
param *.sensor*.app[0].messageLength 10Byte
param *.server.numApps 1
param *.server.app[0].typename "\"UdpSink\""
param *.server.app[0].localPort 1000
param *.visualizer.*.routingTableVisualizer.displayRoutingTables false
param *.visualizer.*.routingTableVisualizer.displayRoutesIndividually false
param *.visualizer.*.routingTableVisualizer.lineShift 0
param *.visualizer.*.routingTableVisualizer.displayLabels false
param *.visualizer.*.infoVisualizer.modules "\"*.server.app[0]\""
param *.visualizer.*.infoVisualizer.format "\"%t\""
param *.visualizer.*.networkRouteVisualizer.displayRoutes true
param *.visualizer.*.physicalLinkVisualizer.displayLinks true

vector 0 SensorNetworkShowcaseA.sensor4.energyStorage powerConsumption:vector ETV
attr interpolationmode sample-hold
attr source powerConsumptionChanged
attr title "Power consumption, vector"
vector 1 SensorNetworkShowcaseA.sensor1.energyStorage powerConsumption:vector ETV
attr interpolationmode sample-hold
attr source powerConsumptionChanged
attr title "Power consumption, vector"
vector 2 SensorNetworkShowcaseA.sensor2.energyStorage powerConsumption:vector ETV
attr interpolationmode sample-hold
attr source powerConsumptionChanged
attr title "Power consumption, vector"
vector 3 SensorNetworkShowcaseA.sensor3.energyStorage powerConsumption:vector ETV
attr interpolationmode sample-hold
attr source powerConsumptionChanged
attr title "Power consumption, vector"
vector 4 SensorNetworkShowcaseA.gateway.energyStorage powerConsumption:vector ETV
attr interpolationmode sample-hold
attr source powerConsumptionChanged
attr title "Power consumption, vector"
vector 5 SensorNetworkShowcaseA.sensor4.wlan[0].radio radioMode:vector ETV
attr interpolationmode sample-hold
attr source radioModeChanged
attr title "Radio mode, vector"
vector 6 SensorNetworkShowcaseA.sensor4.wlan[0].radio.energyConsumer powerConsumption:vector ETV
attr interpolationmode sample-hold
attr source powerConsumptionChanged
attr title "Power consumption, vector"
vector 7 SensorNetworkShowcaseA.sensor1.wlan[0].radio radioMode:vector ETV
attr interpolationmode sample-hold
attr source radioModeChanged
attr title "Radio mode, vector"
vector 8 SensorNetworkShowcaseA.sensor1.wlan[0].radio.energyConsumer powerConsumption:vector ETV
attr interpolationmode sample-hold
attr source powerConsumptionChanged
attr title "Power consumption, vector"
vector 9 SensorNetworkShowcaseA.sensor2.wlan[0].radio radioMode:vector ETV
attr interpolationmode sample-hold
attr source radioModeChanged
attr title "Radio mode, vector"
vector 10 SensorNetworkShowcaseA.sensor2.wlan[0].radio.energyConsumer powerConsumption:vector ETV
attr interpolationmode sample-hold
attr source powerConsumptionChanged
attr title "Power consumption, vector"
vector 11 SensorNetworkShowcaseA.sensor3.wlan[0].radio radioMode:vector ETV
attr interpolationmode sample-hold
attr source radioModeChanged
attr title "Radio mode, vector"
vector 12 SensorNetworkShowcaseA.sensor3.wlan[0].radio.energyConsumer powerConsumption:vector ETV
attr interpolationmode sample-hold
attr source powerConsumptionChanged
attr title "Power consumption, vector"
vector 13 SensorNetworkShowcaseA.gateway.wlan[0].radio radioMode:vector ETV
attr interpolationmode sample-hold
attr source radioModeChanged
attr title "Radio mode, vector"
vector 14 SensorNetworkShowcaseA.gateway.wlan[0].radio.energyConsumer powerConsumption:vector ETV
attr interpolationmode sample-hold
attr source powerConsumptionChanged
attr title "Power consumption, vector"
vector 15 SensorNetworkShowcaseA.sensor3.app[0] packetSent:vector(packetBytes) ETV
attr interpolationmode none
attr source packetSent
attr title "packets sent, vector(packetBytes)"
vector 16 SensorNetworkShowcaseA.sensor3.udp packetSent:vector(packetBytes) ETV
attr interpolationmode none
attr source packetSent
attr title "packets sent, vector(packetBytes)"
vector 17 SensorNetworkShowcaseA.sensor3.wlan[0].mac.queue queueLength:vector ETV
attr interpolationmode sample-hold
attr source "count(packetPushed) - count(packetPopped) - count(packetRemoved) - count(packetDropped)"
attr title "queue length, vector"
vector 18 SensorNetworkShowcaseA.sensor3.energyStorage residualEnergyCapacity:vector ETV
attr interpolationmode linear
attr source residualEnergyCapacityChanged
attr title "Residual energy capacity, vector"
vector 19 SensorNetworkShowcaseA.sensor3.wlan[0].radio receptionState:vector ETV
attr interpolationmode sample-hold
attr source receptionStateChanged
attr title "Radio reception state, vector"
vector 20 SensorNetworkShowcaseA.sensor3.wlan[0].radio transmissionState:vector ETV
attr interpolationmode sample-hold
attr source transmissionStateChanged
attr title "Radio transmission state, vector"
vector 21 SensorNetworkShowcaseA.sensor3.wlan[0].mac.queue queueingTime:vector ETV
attr interpolationmode none
attr source queueingTime(packetPopped)
attr title "queueing times, vector"
attr unit s
vector 22 SensorNetworkShowcaseA.sensor4.energyStorage residualEnergyCapacity:vector ETV
attr interpolationmode linear
attr source residualEnergyCapacityChanged
attr title "Residual energy capacity, vector"
vector 23 SensorNetworkShowcaseA.sensor4.wlan[0].radio receptionState:vector ETV
attr interpolationmode sample-hold
attr source receptionStateChanged
attr title "Radio reception state, vector"
vector 24 SensorNetworkShowcaseA.gateway.energyStorage residualEnergyCapacity:vector ETV
attr interpolationmode linear
attr source residualEnergyCapacityChanged
attr title "Residual energy capacity, vector"
vector 25 SensorNetworkShowcaseA.gateway.wlan[0].radio receptionState:vector ETV
attr interpolationmode sample-hold
attr source receptionStateChanged
attr title "Radio reception state, vector"
vector 26 SensorNetworkShowcaseA.sensor2.app[0] packetSent:vector(packetBytes) ETV
attr interpolationmode none
attr source packetSent
attr title "packets sent, vector(packetBytes)"
vector 27 SensorNetworkShowcaseA.sensor2.udp packetSent:vector(packetBytes) ETV
attr interpolationmode none
attr source packetSent
attr title "packets sent, vector(packetBytes)"
vector 28 SensorNetworkShowcaseA.sensor2.wlan[0].mac.queue queueLength:vector ETV
attr interpolationmode sample-hold
attr source "count(packetPushed) - count(packetPopped) - count(packetRemoved) - count(packetDropped)"
attr title "queue length, vector"
vector 29 SensorNetworkShowcaseA.gateway.wlan[0].radio transmissionState:vector ETV
attr interpolationmode sample-hold
attr source transmissionStateChanged
attr title "Radio transmission state, vector"
vector 30 SensorNetworkShowcaseA.sensor2.energyStorage residualEnergyCapacity:vector ETV
attr interpolationmode linear
attr source residualEnergyCapacityChanged
attr title "Residual energy capacity, vector"
vector 31 SensorNetworkShowcaseA.sensor2.wlan[0].radio receptionState:vector ETV
attr interpolationmode sample-hold
attr source receptionStateChanged
attr title "Radio reception state, vector"
vector 32 SensorNetworkShowcaseA.sensor2.wlan[0].radio transmissionState:vector ETV
attr interpolationmode sample-hold
attr source transmissionStateChanged
attr title "Radio transmission state, vector"
vector 33 SensorNetworkShowcaseA.gateway.eth[0].encap encapPk:vector(packetBytes) ETV
attr interpolationmode none
attr source encapPk
attr title "packets encapsulated, vector(packetBytes)"
vector 34 SensorNetworkShowcaseA.gateway.eth[0].mac packetReceivedFromUpper:vector(packetBytes) ETV
attr interpolationmode none
attr source packetReceivedFromUpper
attr title "packet bytes from higher layer, vector(packetBytes)"
vector 35 SensorNetworkShowcaseA.gateway.eth[0].mac.queue queueLength:vector ETV
attr interpolationmode sample-hold
attr source "count(packetPushed) - count(packetPopped) - count(packetRemoved) - count(packetDropped)"
attr title "queue length, vector"
vector 36 SensorNetworkShowcaseA.gateway.eth[0].mac.queue queueingTime:vector ETV
attr interpolationmode none
attr source queueingTime(packetPopped)
attr title "queueing times, vector"
attr unit s
vector 37 SensorNetworkShowcaseA.gateway.eth[0].mac txPk:vector(packetBytes) ETV
attr interpolationmode none
attr source packetSentToLower
attr title "packets transmitted, vector(packetBytes)"
vector 38 SensorNetworkShowcaseA.server.eth[0].mac rxPkOk:vector(packetBytes) ETV
attr interpolationmode none
attr source rxPkOk
attr title "packets received OK, vector(packetBytes)"
vector 39 SensorNetworkShowcaseA.server.eth[0].mac passedUpPk:vector(packetBytes) ETV
attr interpolationmode none
attr source packetSentToUpper
attr title "packets passed to higher layer, vector(packetBytes)"
vector 40 SensorNetworkShowcaseA.server.eth[0].encap decapPk:vector(packetBytes) ETV
attr interpolationmode none
attr source decapPk
attr title "packets decapsulated, vector(packetBytes)"
vector 41 SensorNetworkShowcaseA.server.udp packetReceived:vector(packetBytes) ETV
attr interpolationmode none
attr source packetReceived
attr title "packets received, vector(packetBytes)"
vector 42 SensorNetworkShowcaseA.server.udp passedUpPk:vector(count) ETV
attr interpolationmode none
attr source packetSentToUpper
attr title "packets passed up, vector(count)"
vector 43 SensorNetworkShowcaseA.server.app[0] packetReceived:vector(packetBytes) ETV
attr interpolationmode none
attr source packetReceived
attr title "packets received, vector(packetBytes)"
vector 44 SensorNetworkShowcaseA.server.app[0] throughput:vector ETV
attr source throughput(packetReceived)
attr title "throughput, vector"
attr unit bps
vector 45 SensorNetworkShowcaseA.server.app[0] endToEndDelay:vector ETV
attr interpolationmode none
attr source dataAge(packetReceived)
attr title "end-to-end delay, vector"
attr unit s
vector 46 SensorNetworkShowcaseA.server.app[0] rcvdPkSeqNo:vector ETV
attr interpolationmode none
attr source appPkSeqNo(packetReceived)
attr title "received packet sequence number, vector"
vector 47 SensorNetworkShowcaseA.sensor2.wlan[0].mac.queue queueingTime:vector ETV
attr interpolationmode none
attr source queueingTime(packetPopped)
attr title "queueing times, vector"
attr unit s
vector 48 SensorNetworkShowcaseA.sensor1.energyStorage residualEnergyCapacity:vector ETV
attr interpolationmode linear
attr source residualEnergyCapacityChanged
attr title "Residual energy capacity, vector"
vector 49 SensorNetworkShowcaseA.sensor1.wlan[0].radio receptionState:vector ETV
attr interpolationmode sample-hold
attr source receptionStateChanged
attr title "Radio reception state, vector"
vector 50 SensorNetworkShowcaseA.sensor4.app[0] packetSent:vector(packetBytes) ETV
attr interpolationmode none
attr source packetSent
attr title "packets sent, vector(packetBytes)"
vector 51 SensorNetworkShowcaseA.sensor4.udp packetSent:vector(packetBytes) ETV
attr interpolationmode none
attr source packetSent
attr title "packets sent, vector(packetBytes)"
vector 52 SensorNetworkShowcaseA.sensor4.wlan[0].mac.queue queueLength:vector ETV
attr interpolationmode sample-hold
attr source "count(packetPushed) - count(packetPopped) - count(packetRemoved) - count(packetDropped)"
attr title "queue length, vector"
vector 53 SensorNetworkShowcaseA.sensor1.app[0] packetSent:vector(packetBytes) ETV
attr interpolationmode none
attr source packetSent
attr title "packets sent, vector(packetBytes)"
vector 54 SensorNetworkShowcaseA.sensor1.udp packetSent:vector(packetBytes) ETV
attr interpolationmode none
attr source packetSent
attr title "packets sent, vector(packetBytes)"
vector 55 SensorNetworkShowcaseA.sensor1.wlan[0].mac.queue queueLength:vector ETV
attr interpolationmode sample-hold
attr source "count(packetPushed) - count(packetPopped) - count(packetRemoved) - count(packetDropped)"
attr title "queue length, vector"
vector 56 SensorNetworkShowcaseA.sensor1.wlan[0].radio transmissionState:vector ETV
attr interpolationmode sample-hold
attr source transmissionStateChanged
attr title "Radio transmission state, vector"
vector 57 SensorNetworkShowcaseA.sensor1.wlan[0].mac.queue queueingTime:vector ETV
attr interpolationmode none
attr source queueingTime(packetPopped)
attr title "queueing times, vector"
attr unit s
vector 58 SensorNetworkShowcaseA.sensor4.wlan[0].radio transmissionState:vector ETV
attr interpolationmode sample-hold
attr source transmissionStateChanged
attr title "Radio transmission state, vector"
vector 59 SensorNetworkShowcaseA.sensor4.wlan[0].mac.queue queueingTime:vector ETV
attr interpolationmode none
attr source queueingTime(packetPopped)
attr title "queueing times, vector"
attr unit s
vector 60 SensorNetworkShowcaseA.sensor3.wlan[0].mac.queue packetDropQueueOverflow:vector(packetBytes) ETV
attr interpolationmode none
attr source packetDropReasonIsQueueOverflow(packetDropped)
attr title "packet drops: queue overflow, vector(packetBytes)"
vector 61 SensorNetworkShowcaseA.sensor1.wlan[0].mac.queue packetDropQueueOverflow:vector(packetBytes) ETV
attr interpolationmode none
attr source packetDropReasonIsQueueOverflow(packetDropped)
attr title "packet drops: queue overflow, vector(packetBytes)"
vector 62 SensorNetworkShowcaseA.sensor4.wlan[0].mac.queue packetDropQueueOverflow:vector(packetBytes) ETV
attr interpolationmode none
attr source packetDropReasonIsQueueOverflow(packetDropped)
attr title "packet drops: queue overflow, vector(packetBytes)"
2	0	0	0
2	0	0	0
2	0	0	0
2	3	0	1e-06
2	429	0.488502125263	0
2	429	0.488502125263	5e-06
2	434	0.492574020427	0
2	434	0.492574020427	0.05
2	440	0.493507353761	5e-06
2	440	0.493507353761	5e-06
2	449	0.493507396582	0
2	449	0.493507396582	0.05
2	454	0.50550212574	0.0001
2	454	0.50550212574	0.0001
2	454	0.50550212574	0
2	454	0.50550212574	0
2	454	0.50550212574	0.005
2	455	0.50750212577	0
2	455	0.50750212577	0.0001
2	455	0.50750212577	0.0001
2	464	0.510274063249	5e-06
2	474	0.51750212577	0
2	474	0.51750212577	0
2	474	0.51750212577	0.005
2	476	0.51750212577	0
2	476	0.51750212577	0.075
2	481	0.518435459104	0.005
2	481	0.518435459104	0.005
2	487	0.52250212577	0
2	487	0.52250212577	5e-06
2	487	0.52250212577	5e-06
2	490	0.53250212577	0
2	490	0.53250212577	0
2	490	0.53250212577	0.005
2	492	0.53250212577	0
2	492	0.53250212577	0.075
2	497	0.533435459104	0.005
2	497	0.533435459104	0.005
2	502	0.53750212577	0
2	502	0.53750212577	5e-06
2	502	0.53750212577	5e-06
2	505	0.54750212577	0
2	505	0.54750212577	0
2	505	0.54750212577	0.005
2	507	0.54750212577	0
2	507	0.54750212577	0.075
2	512	0.548435459104	0.005
2	512	0.548435459104	0.005
2	517	0.55250212577	0
2	517	0.55250212577	5e-06
2	517	0.55250212577	5e-06
2	529	0.56250212577	0
2	529	0.56250212577	0
2	529	0.56250212577	0.005
2	531	0.56250212577	0
2	531	0.56250212577	0.075
2	536	0.563435459104	0.005
2	536	0.563435459104	0.005
2	542	0.56750212577	0
2	542	0.56750212577	5e-06
2	542	0.56750212577	5e-06
2	545	0.57750212577	0
2	545	0.57750212577	0
2	545	0.57750212577	0.005
2	547	0.57750212577	0
2	547	0.57750212577	0.075
2	552	0.578435459104	0.005
2	552	0.578435459104	0.005
2	557	0.58250212577	0
2	557	0.58250212577	5e-06
2	557	0.58250212577	5e-06
2	560	0.59250212577	0
2	560	0.59250212577	0
2	560	0.59250212577	0.005
2	562	0.59250212577	0
2	562	0.59250212577	0.075
2	567	0.593435459104	0.005
2	567	0.593435459104	0.005
2	572	0.59750212577	0
2	572	0.59750212577	5e-06
2	572	0.59750212577	5e-06
2	575	0.60750212577	0
2	575	0.60750212577	0
2	575	0.60750212577	0.005
2	577	0.60750212577	0
2	577	0.60750212577	0.075
2	582	0.608435459104	0.005
2	582	0.608435459104	0.005
2	587	0.61250212577	0
2	587	0.61250212577	5e-06
2	587	0.61250212577	5e-06
2	590	0.62250212577	0
2	590	0.62250212577	0
2	590	0.62250212577	0.005
2	592	0.62250212577	0
2	592	0.62250212577	0.075
2	597	0.623435459104	0.005
2	597	0.623435459104	0.005
2	602	0.62750212577	0
2	602	0.62750212577	5e-06
2	602	0.62750212577	5e-06
2	605	0.63750212577	0
2	605	0.63750212577	0
2	605	0.63750212577	0.005
2	607	0.63750212577	0
2	607	0.63750212577	0.075
2	612	0.638435459104	0.005
2	612	0.638435459104	0.005
2	617	0.64250212577	0
2	617	0.64250212577	5e-06
2	617	0.64250212577	5e-06
2	620	0.65250212577	0
2	620	0.65250212577	0
2	620	0.65250212577	0.005
2	622	0.65250212577	0
2	622	0.65250212577	0.075
2	627	0.653435459104	0.005
2	627	0.653435459104	0.005
2	632	0.65750212577	0
2	632	0.65750212577	5e-06
2	632	0.65750212577	5e-06
2	635	0.66750212577	0
2	635	0.66750212577	0
2	635	0.66750212577	0.005
2	637	0.66750212577	0
2	637	0.66750212577	0.075
2	642	0.668435459104	0.005
2	642	0.668435459104	0.005
2	647	0.67250212577	0
2	647	0.67250212577	5e-06
2	647	0.67250212577	5e-06
2	650	0.68250212577	0
2	650	0.68250212577	0
2	650	0.68250212577	0.005
2	652	0.68250212577	0
2	652	0.68250212577	0.075
2	657	0.683435459104	0.005
2	657	0.683435459104	0.005
2	662	0.68750212577	0
2	662	0.68750212577	5e-06
2	662	0.68750212577	5e-06
2	665	0.69750212577	0
2	665	0.69750212577	0
2	665	0.69750212577	0.005
2	667	0.69750212577	0
2	667	0.69750212577	0.075
2	672	0.698435459104	0.005
2	672	0.698435459104	0.005
2	677	0.70250212577	0
2	677	0.70250212577	5e-06
2	677	0.70250212577	5e-06
2	680	0.71250212577	0
2	680	0.71250212577	0
2	680	0.71250212577	0.005
2	682	0.71250212577	0
2	682	0.71250212577	0.075
2	687	0.713435459104	0.005
2	687	0.713435459104	0.005
2	692	0.71750212577	0
2	692	0.71750212577	5e-06
2	692	0.71750212577	5e-06
2	695	0.72750212577	0
2	695	0.72750212577	0
2	695	0.72750212577	0.005
2	697	0.72750212577	0
2	697	0.72750212577	0.075
2	702	0.728435459104	0.005
2	702	0.728435459104	0.005
2	707	0.73250212577	0
2	707	0.73250212577	5e-06
2	707	0.73250212577	5e-06
2	710	0.74250212577	0
2	710	0.74250212577	0
2	710	0.74250212577	0.005
2	712	0.74250212577	0
2	712	0.74250212577	0.075
2	717	0.743435459104	0.005
2	717	0.743435459104	0.005
2	722	0.74750212577	0
2	722	0.74750212577	5e-06
2	722	0.74750212577	5e-06
2	725	0.75750212577	0
2	725	0.75750212577	0
2	725	0.75750212577	0.005
2	727	0.75750212577	0
2	727	0.75750212577	0.075
2	732	0.758435459104	0.005
2	732	0.758435459104	0.005
2	737	0.76250212577	0
2	737	0.76250212577	5e-06
2	737	0.76250212577	5e-06
2	740	0.77250212577	0
2	740	0.77250212577	0
2	740	0.77250212577	0.005
2	742	0.77250212577	0
2	742	0.77250212577	0.075
2	747	0.773435459104	0.005
2	747	0.773435459104	0.005
2	752	0.77750212577	0
2	752	0.77750212577	5e-06
2	752	0.77750212577	5e-06
2	755	0.78750212577	0
2	755	0.78750212577	0
2	755	0.78750212577	0.005
2	757	0.78750212577	0
2	757	0.78750212577	0.075
2	762	0.788435459104	0.005
2	762	0.788435459104	0.005
2	768	0.79250212577	0
2	768	0.79250212577	5e-06
2	768	0.79250212577	5e-06
2	771	0.80250212577	0
2	771	0.80250212577	0
2	771	0.80250212577	0.005
2	773	0.80250212577	0
2	773	0.80250212577	0.075
2	778	0.803435459104	0.005
2	778	0.803435459104	0.005
2	784	0.80750212577	0
2	784	0.80750212577	5e-06
2	784	0.80750212577	5e-06
2	787	0.81750212577	0
2	787	0.81750212577	0
2	787	0.81750212577	0.005
2	789	0.81750212577	0
2	789	0.81750212577	0.075
2	794	0.818435459104	0.005
2	794	0.818435459104	0.005
2	799	0.82250212577	0
2	799	0.82250212577	5e-06
2	799	0.82250212577	5e-06
2	802	0.83250212577	0
2	802	0.83250212577	0
2	802	0.83250212577	0.005
2	804	0.83250212577	0
2	804	0.83250212577	0.075
2	809	0.833435459104	0.005
2	809	0.833435459104	0.005
2	814	0.83750212577	0
2	814	0.83750212577	5e-06
2	814	0.83750212577	5e-06
2	817	0.84750212577	0
2	817	0.84750212577	0
2	817	0.84750212577	0.005
2	819	0.84750212577	0
2	819	0.84750212577	0.075
2	824	0.848435459104	0.005
2	824	0.848435459104	0.005
2	829	0.85250212577	0
2	829	0.85250212577	5e-06
2	829	0.85250212577	5e-06
2	832	0.86250212577	0
2	832	0.86250212577	0
2	832	0.86250212577	0.005
2	834	0.86250212577	0
2	834	0.86250212577	0.075
2	839	0.863435459104	0.005
2	839	0.863435459104	0.005
2	844	0.86750212577	0
2	844	0.86750212577	5e-06
2	844	0.86750212577	5e-06
2	847	0.87750212577	0
2	847	0.87750212577	0
2	847	0.87750212577	0.005
2	849	0.87750212577	0
2	849	0.87750212577	0.075
2	854	0.878435459104	0.005
2	854	0.878435459104	0.005
2	859	0.88250212577	0
2	859	0.88250212577	5e-06
2	859	0.88250212577	5e-06
2	862	0.89250212577	0
2	862	0.89250212577	0
2	862	0.89250212577	0.005
2	864	0.89250212577	0
2	864	0.89250212577	0.075
2	869	0.893435459104	0.005
2	869	0.893435459104	0.005
2	874	0.89750212577	0
2	874	0.89750212577	5e-06
2	874	0.89750212577	5e-06
2	877	0.90750212577	0
2	877	0.90750212577	0
2	877	0.90750212577	0.005
2	879	0.90750212577	0
2	879	0.90750212577	0.075
2	884	0.908435459104	0.005
2	884	0.908435459104	0.005
2	889	0.91250212577	0
2	889	0.91250212577	5e-06
2	889	0.91250212577	5e-06
2	892	0.92250212577	0
2	892	0.92250212577	0
2	892	0.92250212577	0.005
2	894	0.92250212577	0
2	894	0.92250212577	0.075
2	899	0.923435459104	0.005
2	899	0.923435459104	0.005
2	904	0.92750212577	0
2	904	0.92750212577	5e-06
2	904	0.92750212577	5e-06
2	907	0.93750212577	0
2	907	0.93750212577	0
2	907	0.93750212577	0.005
2	909	0.93750212577	0
2	909	0.93750212577	0.075
2	914	0.938435459104	0.005
2	914	0.938435459104	0.005
2	919	0.94250212577	0
2	919	0.94250212577	5e-06
2	919	0.94250212577	5e-06
2	922	0.95250212577	0
2	922	0.95250212577	0
2	922	0.95250212577	0.005
2	924	0.95250212577	0
2	924	0.95250212577	0.075
2	929	0.953435459104	0.005
2	929	0.953435459104	0.005
2	934	0.95750212577	0
2	934	0.95750212577	5e-06
2	934	0.95750212577	5e-06
2	937	0.96750212577	0
2	937	0.96750212577	0
2	937	0.96750212577	0.005
2	939	0.96750212577	0
2	939	0.96750212577	0.075
2	944	0.968435459104	0.005
2	944	0.968435459104	0.005
2	949	0.97250212577	0
2	949	0.97250212577	5e-06
2	949	0.97250212577	5e-06
2	952	0.98250212577	0
2	952	0.98250212577	0
2	952	0.98250212577	0.005
2	954	0.98250212577	0
2	954	0.98250212577	0.075
2	959	0.983435459104	0.005
2	959	0.983435459104	0.005
2	964	0.98750212577	0
2	964	0.98750212577	5e-06
2	964	0.98750212577	5e-06
2	967	0.99750212577	0
2	967	0.99750212577	0
2	967	0.99750212577	0.005
2	969	0.99750212577	0
2	969	0.99750212577	0.075
2	974	0.998435459104	0.005
2	974	0.998435459104	0.005
2	979	1.00250212577	0
2	979	1.00250212577	5e-06
2	979	1.00250212577	5e-06
2	982	1.01250212577	0
2	982	1.01250212577	0
2	982	1.01250212577	0.005
2	984	1.01250212577	0
2	984	1.01250212577	0.075
2	989	1.013435459104	0.005
2	989	1.013435459104	0.005
2	994	1.01750212577	0
2	994	1.01750212577	5e-06
2	994	1.01750212577	5e-06
2	997	1.02750212577	0
2	997	1.02750212577	0
2	997	1.02750212577	0.005
2	999	1.02750212577	0
2	999	1.02750212577	0.075
2	1004	1.028435459104	0.005
2	1004	1.028435459104	0.005
2	1009	1.03250212577	0
2	1009	1.03250212577	5e-06
2	1009	1.03250212577	5e-06
2	1012	1.04250212577	0
2	1012	1.04250212577	0
2	1012	1.04250212577	0.005
2	1014	1.04250212577	0
2	1014	1.04250212577	0.075
2	1019	1.043435459104	0.005
2	1019	1.043435459104	0.005
2	1024	1.04750212577	0
2	1024	1.04750212577	5e-06
2	1024	1.04750212577	5e-06
2	1027	1.05750212577	0
2	1027	1.05750212577	0
2	1027	1.05750212577	0.005
2	1029	1.05750212577	0
2	1029	1.05750212577	0.075
2	1034	1.058435459104	0.005
2	1034	1.058435459104	0.005
2	1039	1.06250212577	0
2	1039	1.06250212577	5e-06
2	1039	1.06250212577	5e-06
2	1042	1.07250212577	0
2	1042	1.07250212577	0
2	1042	1.07250212577	0.005
2	1044	1.07250212577	0
2	1044	1.07250212577	0.075
2	1049	1.073435459104	0.005
2	1049	1.073435459104	0.005
2	1054	1.07750212577	0
2	1054	1.07750212577	5e-06
2	1054	1.07750212577	5e-06
2	1057	1.08750212577	0
2	1057	1.08750212577	0
2	1057	1.08750212577	0.005
2	1059	1.08750212577	0
2	1059	1.08750212577	0.075
2	1064	1.088435459104	0.005
2	1064	1.088435459104	0.005
2	1069	1.09250212577	0
2	1069	1.09250212577	5e-06
2	1069	1.09250212577	5e-06
2	1072	1.10250212577	0
2	1072	1.10250212577	0
2	1072	1.10250212577	0.005
2	1074	1.10250212577	0
2	1074	1.10250212577	0.075
2	1079	1.103435459104	0.005
2	1079	1.103435459104	0.005
2	1084	1.10750212577	0
2	1084	1.10750212577	5e-06
2	1084	1.10750212577	5e-06
2	1087	1.11750212577	0
2	1087	1.11750212577	0
2	1087	1.11750212577	0.005
2	1089	1.11750212577	0
2	1089	1.11750212577	0.075
2	1094	1.118435459104	0.005
2	1094	1.118435459104	0.005
2	1099	1.12250212577	0
2	1099	1.12250212577	5e-06
2	1099	1.12250212577	5e-06
2	1102	1.13250212577	0
2	1102	1.13250212577	0
2	1102	1.13250212577	0.005
2	1104	1.13250212577	0
2	1104	1.13250212577	0.075
2	1109	1.133435459104	0.005
2	1109	1.133435459104	0.005
2	1114	1.13750212577	0
2	1114	1.13750212577	5e-06
2	1114	1.13750212577	5e-06
2	1117	1.14750212577	0
2	1117	1.14750212577	0
2	1117	1.14750212577	0.005
2	1119	1.14750212577	0
2	1119	1.14750212577	0.075
2	1124	1.148435459104	0.005
2	1124	1.148435459104	0.005
2	1129	1.15250212577	0
2	1129	1.15250212577	5e-06
2	1129	1.15250212577	5e-06
2	1132	1.16250212577	0
2	1132	1.16250212577	0
2	1132	1.16250212577	0.005
2	1134	1.16250212577	0
2	1134	1.16250212577	0.075
2	1139	1.163435459104	0.005
2	1139	1.163435459104	0.005
2	1144	1.16750212577	0
2	1144	1.16750212577	5e-06
2	1144	1.16750212577	5e-06
2	1147	1.17750212577	0
2	1147	1.17750212577	0
2	1147	1.17750212577	0.005
2	1149	1.17750212577	0
2	1149	1.17750212577	0.075
2	1154	1.178435459104	0.005
2	1154	1.178435459104	0.005
2	1159	1.18250212577	0
2	1159	1.18250212577	5e-06
2	1159	1.18250212577	5e-06
2	1162	1.19250212577	0
2	1162	1.19250212577	0
2	1162	1.19250212577	0.005
2	1164	1.19250212577	0
2	1164	1.19250212577	0.075
2	1169	1.193435459104	0.005
2	1169	1.193435459104	0.005
2	1174	1.19750212577	0
2	1174	1.19750212577	5e-06
2	1174	1.19750212577	5e-06
2	1177	1.20750212577	0
2	1177	1.20750212577	0
2	1177	1.20750212577	0.005
2	1179	1.20750212577	0
2	1179	1.20750212577	0.075
2	1184	1.208435459104	0.005
2	1184	1.208435459104	0.005
2	1189	1.21250212577	0
2	1189	1.21250212577	5e-06
2	1189	1.21250212577	5e-06
2	1192	1.22250212577	0
2	1192	1.22250212577	0
2	1192	1.22250212577	0.005
2	1194	1.22250212577	0
2	1194	1.22250212577	0.075
2	1199	1.223435459104	0.005
2	1199	1.223435459104	0.005
2	1204	1.22750212577	0
2	1204	1.22750212577	5e-06
2	1204	1.22750212577	5e-06
2	1207	1.23750212577	0
2	1207	1.23750212577	0
2	1207	1.23750212577	0.005
2	1209	1.23750212577	0
2	1209	1.23750212577	0.075
2	1214	1.238435459104	0.005
2	1214	1.238435459104	0.005
2	1219	1.24250212577	0
2	1219	1.24250212577	5e-06
2	1219	1.24250212577	5e-06
2	1222	1.25250212577	0
2	1222	1.25250212577	0
2	1222	1.25250212577	0.005
2	1224	1.25250212577	0
2	1224	1.25250212577	0.075
2	1229	1.253435459104	0.005
2	1229	1.253435459104	0.005
2	1234	1.25750212577	0
2	1234	1.25750212577	5e-06
2	1234	1.25750212577	5e-06
2	1237	1.26750212577	0
2	1237	1.26750212577	0
2	1237	1.26750212577	0.005
2	1239	1.26750212577	0
2	1239	1.26750212577	0.075
2	1244	1.268435459104	0.005
2	1244	1.268435459104	0.005
2	1249	1.27250212577	0
2	1249	1.27250212577	5e-06
2	1249	1.27250212577	5e-06
2	1252	1.28250212577	0
2	1252	1.28250212577	0
2	1252	1.28250212577	0.005
2	1254	1.28250212577	0
2	1254	1.28250212577	0.075
2	1259	1.283435459104	0.005
2	1259	1.283435459104	0.005
2	1264	1.28750212577	0
2	1264	1.28750212577	5e-06
2	1264	1.28750212577	5e-06
2	1267	1.29750212577	0
2	1267	1.29750212577	0
2	1267	1.29750212577	0.005
2	1269	1.29750212577	0
2	1269	1.29750212577	0.075
2	1274	1.298435459104	0.005
2	1274	1.298435459104	0.005
2	1279	1.30250212577	0
2	1279	1.30250212577	5e-06
2	1279	1.30250212577	5e-06
2	1282	1.31250212577	0
2	1282	1.31250212577	0
2	1282	1.31250212577	0.005
2	1284	1.31250212577	0
2	1284	1.31250212577	0.075
2	1289	1.313435459104	0.005
2	1289	1.313435459104	0.005
2	1294	1.31750212577	0
2	1294	1.31750212577	5e-06
2	1294	1.31750212577	5e-06
2	1297	1.32750212577	0
2	1297	1.32750212577	0
2	1297	1.32750212577	0.005
2	1299	1.32750212577	0
2	1299	1.32750212577	0.075
2	1304	1.328435459104	0.005
2	1304	1.328435459104	0.005
2	1309	1.33250212577	0
2	1309	1.33250212577	5e-06
2	1309	1.33250212577	5e-06
2	1312	1.34250212577	0
2	1312	1.34250212577	0
2	1312	1.34250212577	0.005
2	1314	1.34250212577	0
2	1314	1.34250212577	0.075
2	1319	1.343435459104	0.005
2	1319	1.343435459104	0.005
2	1324	1.34750212577	0
2	1324	1.34750212577	5e-06
2	1324	1.34750212577	5e-06
2	1327	1.35750212577	0
2	1327	1.35750212577	0
2	1327	1.35750212577	0.005
2	1329	1.35750212577	0
2	1329	1.35750212577	0.075
2	1334	1.358435459104	0.005
2	1334	1.358435459104	0.005
2	1339	1.36250212577	0
2	1339	1.36250212577	5e-06
2	1339	1.36250212577	5e-06
2	1342	1.37250212577	0
2	1342	1.37250212577	0
2	1342	1.37250212577	0.005
2	1344	1.37250212577	0
2	1344	1.37250212577	0.075
2	1349	1.373435459104	0.005
2	1349	1.373435459104	0.005
2	1354	1.37750212577	0
2	1354	1.37750212577	5e-06
2	1354	1.37750212577	5e-06
2	1357	1.38750212577	0
2	1357	1.38750212577	0
2	1357	1.38750212577	0.005
2	1359	1.38750212577	0
2	1359	1.38750212577	0.075
2	1364	1.388435459104	0.005
2	1364	1.388435459104	0.005
2	1369	1.39250212577	0
2	1369	1.39250212577	5e-06
2	1369	1.39250212577	5e-06
2	1372	1.40250212577	0
2	1372	1.40250212577	0
2	1372	1.40250212577	0.005
2	1374	1.40250212577	0
2	1374	1.40250212577	0.075
2	1379	1.403435459104	0.005
2	1379	1.403435459104	0.005
2	1384	1.40750212577	0
2	1384	1.40750212577	5e-06
2	1384	1.40750212577	5e-06
2	1387	1.41750212577	0
2	1387	1.41750212577	0
2	1387	1.41750212577	0.005
2	1389	1.41750212577	0
2	1389	1.41750212577	0.075
2	1394	1.418435459104	0.005
2	1394	1.418435459104	0.005
2	1399	1.42250212577	0
2	1399	1.42250212577	5e-06
2	1399	1.42250212577	5e-06
2	1402	1.43250212577	0
2	1402	1.43250212577	0
2	1402	1.43250212577	0.005
2	1404	1.43250212577	0
2	1404	1.43250212577	0.075
2	1409	1.433435459104	0.005
2	1409	1.433435459104	0.005
2	1414	1.43750212577	0
2	1414	1.43750212577	5e-06
2	1414	1.43750212577	5e-06
2	1417	1.44750212577	0
2	1417	1.44750212577	0
2	1417	1.44750212577	0.005
2	1419	1.44750212577	0
2	1419	1.44750212577	0.075
2	1424	1.448435459104	0.005
2	1424	1.448435459104	0.005
2	1429	1.45250212577	0
2	1429	1.45250212577	5e-06
2	1429	1.45250212577	5e-06
2	1432	1.46250212577	0
2	1432	1.46250212577	0
2	1432	1.46250212577	0.005
2	1434	1.46250212577	0
2	1434	1.46250212577	0.075
2	1439	1.463435459104	0.005
2	1439	1.463435459104	0.005
2	1444	1.46750212577	0
2	1444	1.46750212577	5e-06
2	1444	1.46750212577	5e-06
2	1447	1.47750212577	0
2	1447	1.47750212577	0
2	1447	1.47750212577	0.005
2	1449	1.47750212577	0
2	1449	1.47750212577	0.075
2	1454	1.478435459104	0.005
2	1454	1.478435459104	0.005
2	1459	1.48250212577	0
2	1459	1.48250212577	5e-06
2	1459	1.48250212577	5e-06
2	1463	1.49250212577	0
2	1463	1.49250212577	0
2	1463	1.49250212577	0.005
2	1465	1.49250212577	0
2	1465	1.49250212577	0.075
2	1470	1.493435459104	0.005
2	1470	1.493435459104	0.005
2	1476	1.49750212577	0
2	1476	1.49750212577	5e-06
2	1476	1.49750212577	5e-06
2	1479	1.50550212574	0
2	1479	1.50550212574	0
2	1479	1.50550212574	0.005
2	1481	1.50550212574	0
2	1481	1.50550212574	0.075
2	1487	1.522268792407	0.005
2	1487	1.522268792407	0.005
2	1488	1.522268792407	1e-06
2	1488	1.522268792407	1e-06
2	1494	1.53184034395	0
2	1494	1.53184034395	5e-06
2	1496	1.548840344427	0
2	1496	1.548840344427	0
2	1496	1.548840344427	0.005
2	1497	1.550840344457	0
2	1497	1.550840344457	5e-06
2	1497	1.550840344457	5e-06
2	1499	1.560840344457	0
2	1499	1.560840344457	0
2	1499	1.560840344457	0.005
2	1501	1.560840344457	0
2	1501	1.560840344457	0.075
2	1506	1.561773677791	0.005
2	1506	1.561773677791	0.005
2	1512	1.565840344457	0
2	1512	1.565840344457	5e-06
2	1512	1.565840344457	5e-06
2	1515	1.575840344457	0
2	1515	1.575840344457	0
2	1515	1.575840344457	0.005
2	1517	1.575840344457	0
2	1517	1.575840344457	0.075
2	1522	1.576773677791	0.005
2	1522	1.576773677791	0.005
2	1528	1.580840344457	0
2	1528	1.580840344457	5e-06
2	1528	1.580840344457	5e-06
2	1531	1.590840344457	0
2	1531	1.590840344457	0
2	1531	1.590840344457	0.005
2	1533	1.590840344457	0
2	1533	1.590840344457	0.075
2	1538	1.591773677791	0.005
2	1538	1.591773677791	0.005
2	1543	1.595840344457	0
2	1543	1.595840344457	5e-06
2	1543	1.595840344457	5e-06
2	1550	1.605840344457	0
2	1550	1.605840344457	0
2	1550	1.605840344457	0.005
2	1552	1.605840344457	0
2	1552	1.605840344457	0.075
2	1557	1.606773677791	0.005
2	1557	1.606773677791	0.005
2	1563	1.610840344457	0
2	1563	1.610840344457	5e-06
2	1563	1.610840344457	5e-06
2	1566	1.620840344457	0
2	1566	1.620840344457	0
2	1566	1.620840344457	0.005
2	1568	1.620840344457	0
2	1568	1.620840344457	0.075
2	1573	1.621773677791	0.005
2	1573	1.621773677791	0.005
2	1579	1.625840344457	0
2	1579	1.625840344457	5e-06
2	1579	1.625840344457	5e-06
2	1582	1.635840344457	0
2	1582	1.635840344457	0
2	1582	1.635840344457	0.005
2	1584	1.635840344457	0
2	1584	1.635840344457	0.075
2	1589	1.636773677791	0.005
2	1589	1.636773677791	0.005
2	1594	1.640840344457	0
2	1594	1.640840344457	5e-06
2	1594	1.640840344457	5e-06
2	1597	1.650840344457	0
2	1597	1.650840344457	0
2	1597	1.650840344457	0.005
2	1599	1.650840344457	0
2	1599	1.650840344457	0.075
2	1604	1.651773677791	0.005
2	1604	1.651773677791	0.005
2	1609	1.655840344457	0
2	1609	1.655840344457	5e-06
2	1609	1.655840344457	5e-06
2	1612	1.665840344457	0
2	1612	1.665840344457	0
2	1612	1.665840344457	0.005
2	1614	1.665840344457	0
2	1614	1.665840344457	0.075
2	1619	1.666773677791	0.005
2	1619	1.666773677791	0.005
2	1624	1.670840344457	0
2	1624	1.670840344457	5e-06
2	1624	1.670840344457	5e-06
2	1627	1.680840344457	0
2	1627	1.680840344457	0
2	1627	1.680840344457	0.005
2	1629	1.680840344457	0
2	1629	1.680840344457	0.075
2	1634	1.681773677791	0.005
2	1634	1.681773677791	0.005
2	1639	1.685840344457	0
2	1639	1.685840344457	5e-06
2	1639	1.685840344457	5e-06
2	1642	1.695840344457	0
2	1642	1.695840344457	0
2	1642	1.695840344457	0.005
2	1644	1.695840344457	0
2	1644	1.695840344457	0.075
2	1649	1.696773677791	0.005
2	1649	1.696773677791	0.005
2	1654	1.700840344457	0
2	1654	1.700840344457	5e-06
2	1654	1.700840344457	5e-06
2	1657	1.710840344457	0
2	1657	1.710840344457	0
2	1657	1.710840344457	0.005
2	1659	1.710840344457	0
2	1659	1.710840344457	0.075
2	1664	1.711773677791	0.005
2	1664	1.711773677791	0.005
2	1669	1.715840344457	0
2	1669	1.715840344457	5e-06
2	1669	1.715840344457	5e-06
2	1672	1.725840344457	0
2	1672	1.725840344457	0
2	1672	1.725840344457	0.005
2	1674	1.725840344457	0
2	1674	1.725840344457	0.075
2	1679	1.726773677791	0.005
2	1679	1.726773677791	0.005
2	1684	1.730840344457	0
2	1684	1.730840344457	5e-06
2	1684	1.730840344457	5e-06
2	1687	1.740840344457	0
2	1687	1.740840344457	0
2	1687	1.740840344457	0.005
2	1689	1.740840344457	0
2	1689	1.740840344457	0.075
2	1694	1.741773677791	0.005
2	1694	1.741773677791	0.005
2	1699	1.745840344457	0
2	1699	1.745840344457	5e-06
2	1699	1.745840344457	5e-06
2	1706	1.755840344457	0
2	1706	1.755840344457	0
2	1706	1.755840344457	0.005
2	1708	1.755840344457	0
2	1708	1.755840344457	0.075
2	1713	1.756773677791	0.005
2	1713	1.756773677791	0.005
2	1719	1.760840344457	0
2	1719	1.760840344457	5e-06
2	1719	1.760840344457	5e-06
2	1722	1.770840344457	0
2	1722	1.770840344457	0
2	1722	1.770840344457	0.005
2	1724	1.770840344457	0
2	1724	1.770840344457	0.075
2	1729	1.771773677791	0.005
2	1729	1.771773677791	0.005
2	1735	1.775840344457	0
2	1735	1.775840344457	5e-06
2	1735	1.775840344457	5e-06
2	1738	1.785840344457	0
2	1738	1.785840344457	0
2	1738	1.785840344457	0.005
2	1740	1.785840344457	0
2	1740	1.785840344457	0.075
2	1745	1.786773677791	0.005
2	1745	1.786773677791	0.005
2	1750	1.790840344457	0
2	1750	1.790840344457	5e-06
2	1750	1.790840344457	5e-06
2	1753	1.800840344457	0
2	1753	1.800840344457	0
2	1753	1.800840344457	0.005
2	1755	1.800840344457	0
2	1755	1.800840344457	0.075
2	1760	1.801773677791	0.005
2	1760	1.801773677791	0.005
2	1766	1.805840344457	0
2	1766	1.805840344457	5e-06
2	1766	1.805840344457	5e-06
2	1769	1.815840344457	0
2	1769	1.815840344457	0
2	1769	1.815840344457	0.005
2	1771	1.815840344457	0
2	1771	1.815840344457	0.075
2	1776	1.816773677791	0.005
2	1776	1.816773677791	0.005
2	1782	1.820840344457	0
2	1782	1.820840344457	5e-06
2	1782	1.820840344457	5e-06
2	1785	1.830840344457	0
2	1785	1.830840344457	0
2	1785	1.830840344457	0.005
2	1787	1.830840344457	0
2	1787	1.830840344457	0.075
2	1792	1.831773677791	0.005
2	1792	1.831773677791	0.005
2	1797	1.835840344457	0
2	1797	1.835840344457	5e-06
2	1797	1.835840344457	5e-06
2	1800	1.845840344457	0
2	1800	1.845840344457	0
2	1800	1.845840344457	0.005
2	1802	1.845840344457	0
2	1802	1.845840344457	0.075
2	1807	1.846773677791	0.005
2	1807	1.846773677791	0.005
2	1812	1.850840344457	0
2	1812	1.850840344457	5e-06
2	1812	1.850840344457	5e-06
2	1820	1.860840344457	0
2	1820	1.860840344457	0
2	1820	1.860840344457	0.005
2	1822	1.860840344457	0
2	1822	1.860840344457	0.075
2	1827	1.861773677791	0.005
2	1827	1.861773677791	0.005
2	1833	1.865840344457	0
2	1833	1.865840344457	5e-06
2	1833	1.865840344457	5e-06
2	1836	1.875840344457	0
2	1836	1.875840344457	0
2	1836	1.875840344457	0.005
2	1838	1.875840344457	0
2	1838	1.875840344457	0.075
2	1843	1.876773677791	0.005
2	1843	1.876773677791	0.005
2	1854	1.880840344457	0
2	1854	1.880840344457	5e-06
2	1854	1.880840344457	5e-06
2	1858	1.890840344457	0
2	1858	1.890840344457	0
2	1858	1.890840344457	0.005
2	1860	1.890840344457	0
2	1860	1.890840344457	0.075
2	1865	1.891773677791	0.005
2	1865	1.891773677791	0.005
2	1871	1.895840344457	0
2	1871	1.895840344457	5e-06
2	1871	1.895840344457	5e-06
2	1874	1.905840344457	0
2	1874	1.905840344457	0
2	1874	1.905840344457	0.005
2	1876	1.905840344457	0
2	1876	1.905840344457	0.075
2	1881	1.906773677791	0.005
2	1881	1.906773677791	0.005
2	1886	1.910840344457	0
2	1886	1.910840344457	5e-06
2	1886	1.910840344457	5e-06
2	1889	1.920840344457	0
2	1889	1.920840344457	0
2	1889	1.920840344457	0.005
2	1891	1.920840344457	0
2	1891	1.920840344457	0.075
2	1896	1.921773677791	0.005
2	1896	1.921773677791	0.005
2	1901	1.925840344457	0
2	1901	1.925840344457	5e-06
2	1901	1.925840344457	5e-06
2	1904	1.935840344457	0
2	1904	1.935840344457	0
2	1904	1.935840344457	0.005
2	1906	1.935840344457	0
2	1906	1.935840344457	0.075
2	1911	1.936773677791	0.005
2	1911	1.936773677791	0.005
2	1916	1.940840344457	0
2	1916	1.940840344457	5e-06
2	1916	1.940840344457	5e-06
2	1919	1.950840344457	0
2	1919	1.950840344457	0
2	1919	1.950840344457	0.005
2	1921	1.950840344457	0
2	1921	1.950840344457	0.075
2	1926	1.951773677791	0.005
2	1926	1.951773677791	0.005
2	1931	1.955840344457	0
2	1931	1.955840344457	5e-06
2	1931	1.955840344457	5e-06
2	1934	1.965840344457	0
2	1934	1.965840344457	0
2	1934	1.965840344457	0.005
2	1936	1.965840344457	0
2	1936	1.965840344457	0.075
2	1941	1.966773677791	0.005
2	1941	1.966773677791	0.005
2	1946	1.970840344457	0
2	1946	1.970840344457	5e-06
2	1946	1.970840344457	5e-06
2	1949	1.980840344457	0
2	1949	1.980840344457	0
2	1949	1.980840344457	0.005
2	1951	1.980840344457	0
2	1951	1.980840344457	0.075
2	1956	1.981773677791	0.005
2	1956	1.981773677791	0.005
2	1961	1.985840344457	0
2	1961	1.985840344457	5e-06
2	1961	1.985840344457	5e-06
2	1964	1.995840344457	0
2	1964	1.995840344457	0
2	1964	1.995840344457	0.005
2	1966	1.995840344457	0
2	1966	1.995840344457	0.075
2	1971	1.996773677791	0.005
2	1971	1.996773677791	0.005
2	1976	2.000840344457	0
2	1976	2.000840344457	5e-06
2	1976	2.000840344457	5e-06
2	1979	2.010840344457	0
2	1979	2.010840344457	0
2	1979	2.010840344457	0.005
2	1981	2.010840344457	0
2	1981	2.010840344457	0.075
2	1986	2.011773677791	0.005
2	1986	2.011773677791	0.005
2	1991	2.015840344457	0
2	1991	2.015840344457	5e-06
2	1991	2.015840344457	5e-06
2	1994	2.025840344457	0
2	1994	2.025840344457	0
2	1994	2.025840344457	0.005
2	1996	2.025840344457	0
2	1996	2.025840344457	0.075
2	2001	2.026773677791	0.005
2	2001	2.026773677791	0.005
2	2006	2.030840344457	0
2	2006	2.030840344457	5e-06
2	2006	2.030840344457	5e-06
2	2009	2.040840344457	0
2	2009	2.040840344457	0
2	2009	2.040840344457	0.005
2	2011	2.040840344457	0
2	2011	2.040840344457	0.075
2	2016	2.041773677791	0.005
2	2016	2.041773677791	0.005
2	2021	2.045840344457	0
2	2021	2.045840344457	5e-06
2	2021	2.045840344457	5e-06
2	2024	2.055840344457	0
2	2024	2.055840344457	0
2	2024	2.055840344457	0.005
2	2026	2.055840344457	0
2	2026	2.055840344457	0.075
2	2031	2.056773677791	0.005
2	2031	2.056773677791	0.005
2	2036	2.060840344457	0
2	2036	2.060840344457	5e-06
2	2036	2.060840344457	5e-06
2	2039	2.070840344457	0
2	2039	2.070840344457	0
2	2039	2.070840344457	0.005
2	2041	2.070840344457	0
2	2041	2.070840344457	0.075
2	2046	2.071773677791	0.005
2	2046	2.071773677791	0.005
2	2051	2.075840344457	0
2	2051	2.075840344457	5e-06
2	2051	2.075840344457	5e-06
2	2054	2.085840344457	0
2	2054	2.085840344457	0
2	2054	2.085840344457	0.005
2	2056	2.085840344457	0
2	2056	2.085840344457	0.075
2	2061	2.086773677791	0.005
2	2061	2.086773677791	0.005
2	2066	2.090840344457	0
2	2066	2.090840344457	5e-06
2	2066	2.090840344457	5e-06
2	2069	2.100840344457	0
2	2069	2.100840344457	0
2	2069	2.100840344457	0.005
2	2071	2.100840344457	0
2	2071	2.100840344457	0.075
2	2076	2.101773677791	0.005
2	2076	2.101773677791	0.005
2	2081	2.105840344457	0
2	2081	2.105840344457	5e-06
2	2081	2.105840344457	5e-06
2	2084	2.115840344457	0
2	2084	2.115840344457	0
2	2084	2.115840344457	0.005
2	2086	2.115840344457	0
2	2086	2.115840344457	0.075
2	2091	2.116773677791	0.005
2	2091	2.116773677791	0.005
2	2096	2.120840344457	0
2	2096	2.120840344457	5e-06
2	2096	2.120840344457	5e-06
2	2099	2.130840344457	0
2	2099	2.130840344457	0
2	2099	2.130840344457	0.005
2	2101	2.130840344457	0
2	2101	2.130840344457	0.075
2	2106	2.131773677791	0.005
2	2106	2.131773677791	0.005
2	2111	2.135840344457	0
2	2111	2.135840344457	5e-06
2	2111	2.135840344457	5e-06
2	2114	2.145840344457	0
2	2114	2.145840344457	0
2	2114	2.145840344457	0.005
2	2116	2.145840344457	0
2	2116	2.145840344457	0.075
2	2121	2.146773677791	0.005
2	2121	2.146773677791	0.005
2	2126	2.150840344457	0
2	2126	2.150840344457	5e-06
2	2126	2.150840344457	5e-06
2	2129	2.160840344457	0
2	2129	2.160840344457	0
2	2129	2.160840344457	0.005
2	2131	2.160840344457	0
2	2131	2.160840344457	0.075
2	2136	2.161773677791	0.005
2	2136	2.161773677791	0.005
2	2141	2.165840344457	0
2	2141	2.165840344457	5e-06
2	2141	2.165840344457	5e-06
2	2144	2.175840344457	0
2	2144	2.175840344457	0
2	2144	2.175840344457	0.005
2	2146	2.175840344457	0
2	2146	2.175840344457	0.075
2	2151	2.176773677791	0.005
2	2151	2.176773677791	0.005
2	2156	2.180840344457	0
2	2156	2.180840344457	5e-06
2	2156	2.180840344457	5e-06
2	2159	2.190840344457	0
2	2159	2.190840344457	0
2	2159	2.190840344457	0.005
2	2161	2.190840344457	0
2	2161	2.190840344457	0.075
2	2166	2.191773677791	0.005
2	2166	2.191773677791	0.005
2	2171	2.195840344457	0
2	2171	2.195840344457	5e-06
2	2171	2.195840344457	5e-06
2	2174	2.205840344457	0
2	2174	2.205840344457	0
2	2174	2.205840344457	0.005
2	2176	2.205840344457	0
2	2176	2.205840344457	0.075
2	2181	2.206773677791	0.005
2	2181	2.206773677791	0.005
2	2186	2.210840344457	0
2	2186	2.210840344457	5e-06
2	2186	2.210840344457	5e-06
2	2189	2.220840344457	0
2	2189	2.220840344457	0
2	2189	2.220840344457	0.005
2	2191	2.220840344457	0
2	2191	2.220840344457	0.075
2	2196	2.221773677791	0.005
2	2196	2.221773677791	0.005
2	2201	2.225840344457	0
2	2201	2.225840344457	5e-06
2	2201	2.225840344457	5e-06
2	2204	2.235840344457	0
2	2204	2.235840344457	0
2	2204	2.235840344457	0.005
2	2206	2.235840344457	0
2	2206	2.235840344457	0.075
2	2211	2.236773677791	0.005
2	2211	2.236773677791	0.005
2	2216	2.240840344457	0
2	2216	2.240840344457	5e-06
2	2216	2.240840344457	5e-06
2	2219	2.250840344457	0
2	2219	2.250840344457	0
2	2219	2.250840344457	0.005
2	2221	2.250840344457	0
2	2221	2.250840344457	0.075
2	2226	2.251773677791	0.005
2	2226	2.251773677791	0.005
2	2231	2.255840344457	0
2	2231	2.255840344457	5e-06
2	2231	2.255840344457	5e-06
2	2234	2.265840344457	0
2	2234	2.265840344457	0
2	2234	2.265840344457	0.005
2	2236	2.265840344457	0
2	2236	2.265840344457	0.075
2	2241	2.266773677791	0.005
2	2241	2.266773677791	0.005
2	2246	2.270840344457	0
2	2246	2.270840344457	5e-06
2	2246	2.270840344457	5e-06
2	2249	2.280840344457	0
2	2249	2.280840344457	0
2	2249	2.280840344457	0.005
2	2251	2.280840344457	0
2	2251	2.280840344457	0.075
2	2256	2.281773677791	0.005
2	2256	2.281773677791	0.005
2	2261	2.285840344457	0
2	2261	2.285840344457	5e-06
2	2261	2.285840344457	5e-06
2	2264	2.295840344457	0
2	2264	2.295840344457	0
2	2264	2.295840344457	0.005
2	2266	2.295840344457	0
2	2266	2.295840344457	0.075
2	2271	2.296773677791	0.005
2	2271	2.296773677791	0.005
2	2276	2.300840344457	0
2	2276	2.300840344457	5e-06
2	2276	2.300840344457	5e-06
2	2279	2.310840344457	0
2	2279	2.310840344457	0
2	2279	2.310840344457	0.005
2	2281	2.310840344457	0
2	2281	2.310840344457	0.075
2	2286	2.311773677791	0.005
2	2286	2.311773677791	0.005
2	2291	2.315840344457	0
2	2291	2.315840344457	5e-06
2	2291	2.315840344457	5e-06
2	2294	2.325840344457	0
2	2294	2.325840344457	0
2	2294	2.325840344457	0.005
2	2296	2.325840344457	0
2	2296	2.325840344457	0.075
2	2301	2.326773677791	0.005
2	2301	2.326773677791	0.005
2	2306	2.330840344457	0
2	2306	2.330840344457	5e-06
2	2306	2.330840344457	5e-06
2	2309	2.340840344457	0
2	2309	2.340840344457	0
2	2309	2.340840344457	0.005
2	2311	2.340840344457	0
2	2311	2.340840344457	0.075
2	2316	2.341773677791	0.005
2	2316	2.341773677791	0.005
2	2321	2.345840344457	0
2	2321	2.345840344457	5e-06
2	2321	2.345840344457	5e-06
2	2328	2.355840344457	0
2	2328	2.355840344457	0
2	2328	2.355840344457	0.005
2	2330	2.355840344457	0
2	2330	2.355840344457	0.075
2	2335	2.356773677791	0.005
2	2335	2.356773677791	0.005
2	2340	2.360840344457	0
2	2340	2.360840344457	5e-06
2	2340	2.360840344457	5e-06
2	2343	2.370840344457	0
2	2343	2.370840344457	0
2	2343	2.370840344457	0.005
2	2345	2.370840344457	0
2	2345	2.370840344457	0.075
2	2350	2.371773677791	0.005
2	2350	2.371773677791	0.005
2	2355	2.375840344457	0
2	2355	2.375840344457	5e-06
2	2355	2.375840344457	5e-06
2	2358	2.385840344457	0
2	2358	2.385840344457	0
2	2358	2.385840344457	0.005
2	2360	2.385840344457	0
2	2360	2.385840344457	0.075
2	2365	2.386773677791	0.005
2	2365	2.386773677791	0.005
2	2370	2.390840344457	0
2	2370	2.390840344457	5e-06
2	2370	2.390840344457	5e-06
2	2373	2.400840344457	0
2	2373	2.400840344457	0
2	2373	2.400840344457	0.005
2	2375	2.400840344457	0
2	2375	2.400840344457	0.075
2	2380	2.401773677791	0.005
2	2380	2.401773677791	0.005
2	2385	2.405840344457	0
2	2385	2.405840344457	5e-06
2	2385	2.405840344457	5e-06
2	2388	2.415840344457	0
2	2388	2.415840344457	0
2	2388	2.415840344457	0.005
2	2390	2.415840344457	0
2	2390	2.415840344457	0.075
2	2395	2.416773677791	0.005
2	2395	2.416773677791	0.005
2	2400	2.420840344457	0
2	2400	2.420840344457	5e-06
2	2400	2.420840344457	5e-06
2	2403	2.430840344457	0
2	2403	2.430840344457	0
2	2403	2.430840344457	0.005
2	2405	2.430840344457	0
2	2405	2.430840344457	0.075
2	2410	2.431773677791	0.005
2	2410	2.431773677791	0.005
2	2415	2.435840344457	0
2	2415	2.435840344457	5e-06
2	2415	2.435840344457	5e-06
2	2418	2.445840344457	0
2	2418	2.445840344457	0
2	2418	2.445840344457	0.005
2	2420	2.445840344457	0
2	2420	2.445840344457	0.075
2	2425	2.446773677791	0.005
2	2425	2.446773677791	0.005
2	2430	2.450840344457	0
2	2430	2.450840344457	5e-06
2	2430	2.450840344457	5e-06
2	2433	2.460840344457	0
2	2433	2.460840344457	0
2	2433	2.460840344457	0.005
2	2435	2.460840344457	0
2	2435	2.460840344457	0.075
2	2440	2.461773677791	0.005
2	2440	2.461773677791	0.005
2	2445	2.465840344457	0
2	2445	2.465840344457	5e-06
2	2445	2.465840344457	5e-06
2	2448	2.475840344457	0
2	2448	2.475840344457	0
2	2448	2.475840344457	0.005
2	2450	2.475840344457	0
2	2450	2.475840344457	0.075
2	2455	2.476773677791	0.005
2	2455	2.476773677791	0.005
2	2460	2.480840344457	0
2	2460	2.480840344457	5e-06
2	2460	2.480840344457	5e-06
2	2463	2.490840344457	0
2	2463	2.490840344457	0
2	2463	2.490840344457	0.005
2	2465	2.490840344457	0
2	2465	2.490840344457	0.075
2	2470	2.491773677791	0.005
2	2470	2.491773677791	0.005
2	2475	2.495840344457	0
2	2475	2.495840344457	5e-06
2	2475	2.495840344457	5e-06
2	2478	2.505840344457	0
2	2478	2.505840344457	0
2	2478	2.505840344457	0.005
2	2480	2.505840344457	0
2	2480	2.505840344457	0.075
2	2485	2.506773677791	0.005
2	2485	2.506773677791	0.005
2	2490	2.510840344457	0
2	2490	2.510840344457	5e-06
2	2490	2.510840344457	5e-06
2	2493	2.520840344457	0
2	2493	2.520840344457	0
2	2493	2.520840344457	0.005
2	2495	2.520840344457	0
2	2495	2.520840344457	0.075
2	2500	2.521773677791	0.005
2	2500	2.521773677791	0.005
2	2505	2.525840344457	0
2	2505	2.525840344457	5e-06
2	2505	2.525840344457	5e-06
2	2509	2.535840344457	0
2	2509	2.535840344457	0
2	2509	2.535840344457	0.005
2	2511	2.535840344457	0
2	2511	2.535840344457	0.075
2	2516	2.536773677791	0.005
2	2516	2.536773677791	0.005
2	2522	2.540840344457	0
2	2522	2.540840344457	5e-06
2	2522	2.540840344457	5e-06
2	2526	2.541773719201	0
2	2526	2.541773719201	0.05
2	2532	2.542707052535	5e-06
2	2532	2.542707052535	5e-06
2	2533	2.542707052535	0
2	2533	2.542707052535	0
2	2533	2.542707052535	0.005
2	2535	2.542707052535	0
2	2535	2.542707052535	0.075
2	2545	2.559473719202	0.005
2	2545	2.559473719202	0.005
2	2546	2.559473719202	1e-06
2	2546	2.559473719202	1e-06
2	2562	2.565872929372	0
2	2562	2.565872929372	5e-06
2	2564	2.582872929849	0
2	2564	2.582872929849	0
2	2564	2.582872929849	0.005
2	2565	2.584872929879	0
2	2565	2.584872929879	5e-06
2	2565	2.584872929879	5e-06
2	2567	2.594872929879	0
2	2567	2.594872929879	0
2	2567	2.594872929879	0.005
2	2569	2.594872929879	0
2	2569	2.594872929879	0.075
2	2574	2.595806263213	0.005
2	2574	2.595806263213	0.005
2	2579	2.599872929879	0
2	2579	2.599872929879	5e-06
2	2579	2.599872929879	5e-06
2	2582	2.609872929879	0
2	2582	2.609872929879	0
2	2582	2.609872929879	0.005
2	2584	2.609872929879	0
2	2584	2.609872929879	0.075
2	2589	2.610806263213	0.005
2	2589	2.610806263213	0.005
2	2594	2.614872929879	0
2	2594	2.614872929879	5e-06
2	2594	2.614872929879	5e-06
2	2597	2.624872929879	0
2	2597	2.624872929879	0
2	2597	2.624872929879	0.005
2	2599	2.624872929879	0
2	2599	2.624872929879	0.075
2	2604	2.625806263213	0.005
2	2604	2.625806263213	0.005
2	2609	2.629872929879	0
2	2609	2.629872929879	5e-06
2	2609	2.629872929879	5e-06
2	2612	2.639872929879	0
2	2612	2.639872929879	0
2	2612	2.639872929879	0.005
2	2614	2.639872929879	0
2	2614	2.639872929879	0.075
2	2619	2.640806263213	0.005
2	2619	2.640806263213	0.005
2	2624	2.644872929879	0
2	2624	2.644872929879	5e-06
2	2624	2.644872929879	5e-06
2	2627	2.654872929879	0
2	2627	2.654872929879	0
2	2627	2.654872929879	0.005
2	2629	2.654872929879	0
2	2629	2.654872929879	0.075
2	2634	2.655806263213	0.005
2	2634	2.655806263213	0.005
2	2639	2.659872929879	0
2	2639	2.659872929879	5e-06
2	2639	2.659872929879	5e-06
2	2642	2.669872929879	0
2	2642	2.669872929879	0
2	2642	2.669872929879	0.005
2	2644	2.669872929879	0
2	2644	2.669872929879	0.075
2	2649	2.670806263213	0.005
2	2649	2.670806263213	0.005
2	2654	2.674872929879	0
2	2654	2.674872929879	5e-06
2	2654	2.674872929879	5e-06
2	2657	2.684872929879	0
2	2657	2.684872929879	0
2	2657	2.684872929879	0.005
2	2659	2.684872929879	0
2	2659	2.684872929879	0.075
2	2664	2.685806263213	0.005
2	2664	2.685806263213	0.005
2	2669	2.689872929879	0
2	2669	2.689872929879	5e-06
2	2669	2.689872929879	5e-06
2	2672	2.699872929879	0
2	2672	2.699872929879	0
2	2672	2.699872929879	0.005
2	2674	2.699872929879	0
2	2674	2.699872929879	0.075
2	2679	2.700806263213	0.005
2	2679	2.700806263213	0.005
2	2684	2.704872929879	0
2	2684	2.704872929879	5e-06
2	2684	2.704872929879	5e-06
2	2687	2.714872929879	0
2	2687	2.714872929879	0
2	2687	2.714872929879	0.005
2	2689	2.714872929879	0
2	2689	2.714872929879	0.075
2	2694	2.715806263213	0.005
2	2694	2.715806263213	0.005
2	2699	2.719872929879	0
2	2699	2.719872929879	5e-06
2	2699	2.719872929879	5e-06
2	2702	2.729872929879	0
2	2702	2.729872929879	0
2	2702	2.729872929879	0.005
2	2704	2.729872929879	0
2	2704	2.729872929879	0.075
2	2709	2.730806263213	0.005
2	2709	2.730806263213	0.005
2	2714	2.734872929879	0
2	2714	2.734872929879	5e-06
2	2714	2.734872929879	5e-06
2	2717	2.744872929879	0
2	2717	2.744872929879	0
2	2717	2.744872929879	0.005
2	2719	2.744872929879	0
2	2719	2.744872929879	0.075
2	2724	2.745806263213	0.005
2	2724	2.745806263213	0.005
2	2729	2.749872929879	0
2	2729	2.749872929879	5e-06
2	2729	2.749872929879	5e-06
2	2732	2.759872929879	0
2	2732	2.759872929879	0
2	2732	2.759872929879	0.005
2	2734	2.759872929879	0
2	2734	2.759872929879	0.075
2	2739	2.760806263213	0.005
2	2739	2.760806263213	0.005
2	2744	2.764872929879	0
2	2744	2.764872929879	5e-06
2	2744	2.764872929879	5e-06
2	2748	2.774872929879	0
2	2748	2.774872929879	0
2	2748	2.774872929879	0.005
2	2750	2.774872929879	0
2	2750	2.774872929879	0.075
2	2755	2.775806263213	0.005
2	2755	2.775806263213	0.005
2	2761	2.779872929879	0
2	2761	2.779872929879	5e-06
2	2761	2.779872929879	5e-06
2	2764	2.789872929879	0
2	2764	2.789872929879	0
2	2764	2.789872929879	0.005
2	2766	2.789872929879	0
2	2766	2.789872929879	0.075
2	2771	2.790806263213	0.005
2	2771	2.790806263213	0.005
2	2776	2.794872929879	0
2	2776	2.794872929879	5e-06
2	2776	2.794872929879	5e-06
2	2779	2.804872929879	0
2	2779	2.804872929879	0
2	2779	2.804872929879	0.005
2	2781	2.804872929879	0
2	2781	2.804872929879	0.075
2	2786	2.805806263213	0.005
2	2786	2.805806263213	0.005
2	2791	2.809872929879	0
2	2791	2.809872929879	5e-06
2	2791	2.809872929879	5e-06
2	2794	2.819872929879	0
2	2794	2.819872929879	0
2	2794	2.819872929879	0.005
2	2796	2.819872929879	0
2	2796	2.819872929879	0.075
2	2801	2.820806263213	0.005
2	2801	2.820806263213	0.005
2	2806	2.824872929879	0
2	2806	2.824872929879	5e-06
2	2806	2.824872929879	5e-06
2	2809	2.834872929879	0
2	2809	2.834872929879	0
2	2809	2.834872929879	0.005
2	2811	2.834872929879	0
2	2811	2.834872929879	0.075
2	2816	2.835806263213	0.005
2	2816	2.835806263213	0.005
2	2821	2.839872929879	0
2	2821	2.839872929879	5e-06
2	2821	2.839872929879	5e-06
2	2824	2.849872929879	0
2	2824	2.849872929879	0
2	2824	2.849872929879	0.005
2	2826	2.849872929879	0
2	2826	2.849872929879	0.075
2	2831	2.850806263213	0.005
2	2831	2.850806263213	0.005
2	2836	2.854872929879	0
2	2836	2.854872929879	5e-06
2	2836	2.854872929879	5e-06
2	2839	2.864872929879	0
2	2839	2.864872929879	0
2	2839	2.864872929879	0.005
2	2841	2.864872929879	0
2	2841	2.864872929879	0.075
2	2846	2.865806263213	0.005
2	2846	2.865806263213	0.005
2	2851	2.869872929879	0
2	2851	2.869872929879	5e-06
2	2851	2.869872929879	5e-06
2	2855	2.879872929879	0
2	2855	2.879872929879	0
2	2855	2.879872929879	0.005
2	2857	2.879872929879	0
2	2857	2.879872929879	0.075
2	2862	2.880806263213	0.005
2	2862	2.880806263213	0.005
2	2868	2.884872929879	0
2	2868	2.884872929879	5e-06
2	2868	2.884872929879	5e-06
2	2872	2.894872929879	0
2	2872	2.894872929879	0
2	2872	2.894872929879	0.005
2	2874	2.894872929879	0
2	2874	2.894872929879	0.075
2	2879	2.895806263213	0.005
2	2879	2.895806263213	0.005
2	2885	2.899872929879	0
2	2885	2.899872929879	5e-06
2	2885	2.899872929879	5e-06
2	2888	2.909872929879	0
2	2888	2.909872929879	0
2	2888	2.909872929879	0.005
2	2890	2.909872929879	0
2	2890	2.909872929879	0.075
2	2895	2.910806263213	0.005
2	2895	2.910806263213	0.005
2	2900	2.914872929879	0
2	2900	2.914872929879	5e-06
2	2900	2.914872929879	5e-06
2	2903	2.924872929879	0
2	2903	2.924872929879	0
2	2903	2.924872929879	0.005
2	2905	2.924872929879	0
2	2905	2.924872929879	0.075
2	2910	2.925806263213	0.005
2	2910	2.925806263213	0.005
2	2915	2.929872929879	0
2	2915	2.929872929879	5e-06
2	2915	2.929872929879	5e-06
2	2918	2.939872929879	0
2	2918	2.939872929879	0
2	2918	2.939872929879	0.005
2	2920	2.939872929879	0
2	2920	2.939872929879	0.075
2	2925	2.940806263213	0.005
2	2925	2.940806263213	0.005
2	2930	2.944872929879	0
2	2930	2.944872929879	5e-06
2	2930	2.944872929879	5e-06
2	2933	2.954872929879	0
2	2933	2.954872929879	0
2	2933	2.954872929879	0.005
2	2935	2.954872929879	0
2	2935	2.954872929879	0.075
2	2940	2.955806263213	0.005
2	2940	2.955806263213	0.005
2	2945	2.959872929879	0
2	2945	2.959872929879	5e-06
2	2945	2.959872929879	5e-06
2	2948	2.969872929879	0
2	2948	2.969872929879	0
2	2948	2.969872929879	0.005
2	2950	2.969872929879	0
2	2950	2.969872929879	0.075
2	2955	2.970806263213	0.005
2	2955	2.970806263213	0.005
2	2960	2.974872929879	0
2	2960	2.974872929879	5e-06
2	2960	2.974872929879	5e-06
2	2963	2.984872929879	0
2	2963	2.984872929879	0
2	2963	2.984872929879	0.005
2	2965	2.984872929879	0
2	2965	2.984872929879	0.075
2	2970	2.985806263213	0.005
2	2970	2.985806263213	0.005
2	2975	2.989872929879	0
2	2975	2.989872929879	5e-06
2	2975	2.989872929879	5e-06
2	2978	2.999872929879	0
2	2978	2.999872929879	0
2	2978	2.999872929879	0.005
2	2980	2.999872929879	0
2	2980	2.999872929879	0.075
2	2985	3.000806263213	0.005
2	2985	3.000806263213	0.005
2	2990	3.004872929879	0
2	2990	3.004872929879	5e-06
2	2990	3.004872929879	5e-06
2	2993	3.014872929879	0
2	2993	3.014872929879	0
2	2993	3.014872929879	0.005
2	2995	3.014872929879	0
2	2995	3.014872929879	0.075
2	3000	3.015806263213	0.005
2	3000	3.015806263213	0.005
2	3005	3.019872929879	0
2	3005	3.019872929879	5e-06
2	3005	3.019872929879	5e-06
2	3008	3.029872929879	0
2	3008	3.029872929879	0
2	3008	3.029872929879	0.005
2	3010	3.029872929879	0
2	3010	3.029872929879	0.075
2	3015	3.030806263213	0.005
2	3015	3.030806263213	0.005
2	3020	3.034872929879	0
2	3020	3.034872929879	5e-06
2	3020	3.034872929879	5e-06
2	3023	3.044872929879	0
2	3023	3.044872929879	0
2	3023	3.044872929879	0.005
2	3025	3.044872929879	0
2	3025	3.044872929879	0.075
2	3030	3.045806263213	0.005
2	3030	3.045806263213	0.005
2	3035	3.049872929879	0
2	3035	3.049872929879	5e-06
2	3035	3.049872929879	5e-06
2	3038	3.059872929879	0
2	3038	3.059872929879	0
2	3038	3.059872929879	0.005
2	3040	3.059872929879	0
2	3040	3.059872929879	0.075
2	3045	3.060806263213	0.005
2	3045	3.060806263213	0.005
2	3050	3.064872929879	0
2	3050	3.064872929879	5e-06
2	3050	3.064872929879	5e-06
2	3053	3.074872929879	0
2	3053	3.074872929879	0
2	3053	3.074872929879	0.005
2	3055	3.074872929879	0
2	3055	3.074872929879	0.075
2	3060	3.075806263213	0.005
2	3060	3.075806263213	0.005
2	3065	3.079872929879	0
2	3065	3.079872929879	5e-06
2	3065	3.079872929879	5e-06
2	3068	3.089872929879	0
2	3068	3.089872929879	0
2	3068	3.089872929879	0.005
2	3070	3.089872929879	0
2	3070	3.089872929879	0.075
2	3075	3.090806263213	0.005
2	3075	3.090806263213	0.005
2	3080	3.094872929879	0
2	3080	3.094872929879	5e-06
2	3080	3.094872929879	5e-06
2	3083	3.104872929879	0
2	3083	3.104872929879	0
2	3083	3.104872929879	0.005
2	3085	3.104872929879	0
2	3085	3.104872929879	0.075
2	3090	3.105806263213	0.005
2	3090	3.105806263213	0.005
2	3095	3.109872929879	0
2	3095	3.109872929879	5e-06
2	3095	3.109872929879	5e-06
2	3098	3.119872929879	0
2	3098	3.119872929879	0
2	3098	3.119872929879	0.005
2	3100	3.119872929879	0
2	3100	3.119872929879	0.075
2	3105	3.120806263213	0.005
2	3105	3.120806263213	0.005
2	3110	3.124872929879	0
2	3110	3.124872929879	5e-06
2	3110	3.124872929879	5e-06
2	3113	3.134872929879	0
2	3113	3.134872929879	0
2	3113	3.134872929879	0.005
2	3115	3.134872929879	0
2	3115	3.134872929879	0.075
2	3120	3.135806263213	0.005
2	3120	3.135806263213	0.005
2	3125	3.139872929879	0
2	3125	3.139872929879	5e-06
2	3125	3.139872929879	5e-06
2	3128	3.149872929879	0
2	3128	3.149872929879	0
2	3128	3.149872929879	0.005
2	3130	3.149872929879	0
2	3130	3.149872929879	0.075
2	3135	3.150806263213	0.005
2	3135	3.150806263213	0.005
2	3140	3.154872929879	0
2	3140	3.154872929879	5e-06
2	3140	3.154872929879	5e-06
2	3143	3.164872929879	0
2	3143	3.164872929879	0
2	3143	3.164872929879	0.005
2	3145	3.164872929879	0
2	3145	3.164872929879	0.075
2	3150	3.165806263213	0.005
2	3150	3.165806263213	0.005
2	3155	3.169872929879	0
2	3155	3.169872929879	5e-06
2	3155	3.169872929879	5e-06
2	3158	3.179872929879	0
2	3158	3.179872929879	0
2	3158	3.179872929879	0.005
2	3160	3.179872929879	0
2	3160	3.179872929879	0.075
2	3165	3.180806263213	0.005
2	3165	3.180806263213	0.005
2	3170	3.184872929879	0
2	3170	3.184872929879	5e-06
2	3170	3.184872929879	5e-06
2	3173	3.194872929879	0
2	3173	3.194872929879	0
2	3173	3.194872929879	0.005
2	3175	3.194872929879	0
2	3175	3.194872929879	0.075
2	3180	3.195806263213	0.005
2	3180	3.195806263213	0.005
2	3185	3.199872929879	0
2	3185	3.199872929879	5e-06
2	3185	3.199872929879	5e-06
2	3188	3.209872929879	0
2	3188	3.209872929879	0
2	3188	3.209872929879	0.005
2	3190	3.209872929879	0
2	3190	3.209872929879	0.075
2	3195	3.210806263213	0.005
2	3195	3.210806263213	0.005
2	3200	3.214872929879	0
2	3200	3.214872929879	5e-06
2	3200	3.214872929879	5e-06
2	3203	3.224872929879	0
2	3203	3.224872929879	0
2	3203	3.224872929879	0.005
2	3205	3.224872929879	0
2	3205	3.224872929879	0.075
2	3210	3.225806263213	0.005
2	3210	3.225806263213	0.005
2	3215	3.229872929879	0
2	3215	3.229872929879	5e-06
2	3215	3.229872929879	5e-06
2	3218	3.239872929879	0
2	3218	3.239872929879	0
2	3218	3.239872929879	0.005
2	3220	3.239872929879	0
2	3220	3.239872929879	0.075
2	3225	3.240806263213	0.005
2	3225	3.240806263213	0.005
2	3230	3.244872929879	0
2	3230	3.244872929879	5e-06
2	3230	3.244872929879	5e-06
2	3233	3.254872929879	0
2	3233	3.254872929879	0
2	3233	3.254872929879	0.005
2	3235	3.254872929879	0
2	3235	3.254872929879	0.075
2	3240	3.255806263213	0.005
2	3240	3.255806263213	0.005
2	3245	3.259872929879	0
2	3245	3.259872929879	5e-06
2	3245	3.259872929879	5e-06
2	3248	3.269872929879	0
2	3248	3.269872929879	0
2	3248	3.269872929879	0.005
2	3250	3.269872929879	0
2	3250	3.269872929879	0.075
2	3255	3.270806263213	0.005
2	3255	3.270806263213	0.005
2	3260	3.274872929879	0
2	3260	3.274872929879	5e-06
2	3260	3.274872929879	5e-06
2	3263	3.284872929879	0
2	3263	3.284872929879	0
2	3263	3.284872929879	0.005
2	3265	3.284872929879	0
2	3265	3.284872929879	0.075
2	3270	3.285806263213	0.005
2	3270	3.285806263213	0.005
2	3275	3.289872929879	0
2	3275	3.289872929879	5e-06
2	3275	3.289872929879	5e-06
2	3278	3.299872929879	0
2	3278	3.299872929879	0
2	3278	3.299872929879	0.005
2	3280	3.299872929879	0
2	3280	3.299872929879	0.075
2	3285	3.300806263213	0.005
2	3285	3.300806263213	0.005
2	3290	3.304872929879	0
2	3290	3.304872929879	5e-06
2	3290	3.304872929879	5e-06
2	3293	3.314872929879	0
2	3293	3.314872929879	0
2	3293	3.314872929879	0.005
2	3295	3.314872929879	0
2	3295	3.314872929879	0.075
2	3300	3.315806263213	0.005
2	3300	3.315806263213	0.005
2	3305	3.319872929879	0
2	3305	3.319872929879	5e-06
2	3305	3.319872929879	5e-06
2	3308	3.329872929879	0
2	3308	3.329872929879	0
2	3308	3.329872929879	0.005
2	3310	3.329872929879	0
2	3310	3.329872929879	0.075
2	3315	3.330806263213	0.005
2	3315	3.330806263213	0.005
2	3320	3.334872929879	0
2	3320	3.334872929879	5e-06
2	3320	3.334872929879	5e-06
2	3323	3.344872929879	0
2	3323	3.344872929879	0
2	3323	3.344872929879	0.005
2	3325	3.344872929879	0
2	3325	3.344872929879	0.075
2	3330	3.345806263213	0.005
2	3330	3.345806263213	0.005
2	3335	3.349872929879	0
2	3335	3.349872929879	5e-06
2	3335	3.349872929879	5e-06
2	3338	3.359872929879	0
2	3338	3.359872929879	0
2	3338	3.359872929879	0.005
2	3340	3.359872929879	0
2	3340	3.359872929879	0.075
2	3345	3.360806263213	0.005
2	3345	3.360806263213	0.005
2	3350	3.364872929879	0
2	3350	3.364872929879	5e-06
2	3350	3.364872929879	5e-06
2	3353	3.374872929879	0
2	3353	3.374872929879	0
2	3353	3.374872929879	0.005
2	3355	3.374872929879	0
2	3355	3.374872929879	0.075
2	3360	3.375806263213	0.005
2	3360	3.375806263213	0.005
2	3365	3.379872929879	0
2	3365	3.379872929879	5e-06
2	3365	3.379872929879	5e-06
2	3368	3.389872929879	0
2	3368	3.389872929879	0
2	3368	3.389872929879	0.005
2	3370	3.389872929879	0
2	3370	3.389872929879	0.075
2	3375	3.390806263213	0.005
2	3375	3.390806263213	0.005
2	3380	3.394872929879	0
2	3380	3.394872929879	5e-06
2	3380	3.394872929879	5e-06
2	3388	3.404872929879	0
2	3388	3.404872929879	0
2	3388	3.404872929879	0.005
2	3390	3.404872929879	0
2	3390	3.404872929879	0.075
2	3395	3.405806263213	0.005
2	3395	3.405806263213	0.005
2	3401	3.409872929879	0
2	3401	3.409872929879	5e-06
2	3401	3.409872929879	5e-06
2	3404	3.419872929879	0
2	3404	3.419872929879	0
2	3404	3.419872929879	0.005
2	3406	3.419872929879	0
2	3406	3.419872929879	0.075
2	3411	3.420806263213	0.005
2	3411	3.420806263213	0.005
2	3416	3.424872929879	0
2	3416	3.424872929879	5e-06
2	3416	3.424872929879	5e-06
2	3419	3.434872929879	0
2	3419	3.434872929879	0
2	3419	3.434872929879	0.005
2	3421	3.434872929879	0
2	3421	3.434872929879	0.075
2	3426	3.435806263213	0.005
2	3426	3.435806263213	0.005
2	3431	3.439872929879	0
2	3431	3.439872929879	5e-06
2	3431	3.439872929879	5e-06
2	3434	3.449872929879	0
2	3434	3.449872929879	0
2	3434	3.449872929879	0.005
2	3436	3.449872929879	0
2	3436	3.449872929879	0.075
2	3441	3.450806263213	0.005
2	3441	3.450806263213	0.005
2	3446	3.454872929879	0
2	3446	3.454872929879	5e-06
2	3446	3.454872929879	5e-06
2	3449	3.464872929879	0
2	3449	3.464872929879	0
2	3449	3.464872929879	0.005
2	3451	3.464872929879	0
2	3451	3.464872929879	0.075
2	3456	3.465806263213	0.005
2	3456	3.465806263213	0.005
2	3461	3.469872929879	0
2	3461	3.469872929879	5e-06
2	3461	3.469872929879	5e-06
2	3469	3.479872929879	0
2	3469	3.479872929879	0
2	3469	3.479872929879	0.005
2	3471	3.479872929879	0
2	3471	3.479872929879	0.075
2	3476	3.480806263213	0.005
2	3476	3.480806263213	0.005
2	3482	3.484872929879	0
2	3482	3.484872929879	5e-06
2	3482	3.484872929879	5e-06
2	3485	3.494872929879	0
2	3485	3.494872929879	0
2	3485	3.494872929879	0.005
2	3487	3.494872929879	0
2	3487	3.494872929879	0.075
2	3492	3.495806263213	0.005
2	3492	3.495806263213	0.005
2	3497	3.499872929879	0
2	3497	3.499872929879	5e-06
2	3497	3.499872929879	5e-06
2	3500	3.509872929879	0
2	3500	3.509872929879	0
2	3500	3.509872929879	0.005
2	3502	3.509872929879	0
2	3502	3.509872929879	0.075
2	3507	3.510806263213	0.005
2	3507	3.510806263213	0.005
2	3512	3.514872929879	0
2	3512	3.514872929879	5e-06
2	3512	3.514872929879	5e-06
2	3515	3.524872929879	0
2	3515	3.524872929879	0
2	3515	3.524872929879	0.005
2	3517	3.524872929879	0
2	3517	3.524872929879	0.075
2	3522	3.525806263213	0.005
2	3522	3.525806263213	0.005
2	3527	3.529872929879	0
2	3527	3.529872929879	5e-06
2	3527	3.529872929879	5e-06
2	3530	3.539872929879	0
2	3530	3.539872929879	0
2	3530	3.539872929879	0.005
2	3532	3.539872929879	0
2	3532	3.539872929879	0.075
2	3537	3.540806263213	0.005
2	3537	3.540806263213	0.005
2	3542	3.544872929879	0
2	3542	3.544872929879	5e-06
2	3542	3.544872929879	5e-06
2	3549	3.554872929879	0
2	3549	3.554872929879	0
2	3549	3.554872929879	0.005
2	3551	3.554872929879	0
2	3551	3.554872929879	0.075
2	3557	3.555806263213	0.005
2	3557	3.555806263213	0.005
2	3563	3.559872929879	0
2	3563	3.559872929879	5e-06
2	3563	3.559872929879	5e-06
2	3566	3.569872929879	0
2	3566	3.569872929879	0
2	3566	3.569872929879	0.005
2	3568	3.569872929879	0
2	3568	3.569872929879	0.075
2	3573	3.570806263213	0.005
2	3573	3.570806263213	0.005
2	3580	3.574872929879	0
2	3580	3.574872929879	5e-06
2	3580	3.574872929879	5e-06
2	3584	3.575806304623	0
2	3584	3.575806304623	0.05
2	3590	3.576739637957	5e-06
2	3590	3.576739637957	5e-06
2	3591	3.576739637957	0
2	3591	3.576739637957	0
2	3591	3.576739637957	0.005
2	3593	3.576739637957	0
2	3593	3.576739637957	0.075
2	3603	3.593506304624	0.005
2	3603	3.593506304624	0.005
2	3604	3.593506304624	1e-06
2	3604	3.593506304624	1e-06
2	3625	3.629271221542	0
2	3625	3.629271221542	5e-06
2	3626	3.646271222019	0
2	3626	3.646271222019	0
2	3626	3.646271222019	0.005
2	3627	3.648271222049	0
2	3627	3.648271222049	5e-06
2	3627	3.648271222049	5e-06
2	3629	3.658271222049	0
2	3629	3.658271222049	0
2	3629	3.658271222049	0.005
2	3631	3.658271222049	0
2	3631	3.658271222049	0.075
2	3636	3.659204555383	0.005
2	3636	3.659204555383	0.005
2	3641	3.663271222049	0
2	3641	3.663271222049	5e-06
2	3641	3.663271222049	5e-06
2	3644	3.673271222049	0
2	3644	3.673271222049	0
2	3644	3.673271222049	0.005
2	3646	3.673271222049	0
2	3646	3.673271222049	0.075
2	3651	3.674204555383	0.005
2	3651	3.674204555383	0.005
2	3656	3.678271222049	0
2	3656	3.678271222049	5e-06
2	3656	3.678271222049	5e-06
2	3659	3.688271222049	0
2	3659	3.688271222049	0
2	3659	3.688271222049	0.005
2	3661	3.688271222049	0
2	3661	3.688271222049	0.075
2	3666	3.689204555383	0.005
2	3666	3.689204555383	0.005
2	3671	3.693271222049	0
2	3671	3.693271222049	5e-06
2	3671	3.693271222049	5e-06
2	3674	3.703271222049	0
2	3674	3.703271222049	0
2	3674	3.703271222049	0.005
2	3676	3.703271222049	0
2	3676	3.703271222049	0.075
2	3681	3.704204555383	0.005
2	3681	3.704204555383	0.005
2	3686	3.708271222049	0
2	3686	3.708271222049	5e-06
2	3686	3.708271222049	5e-06
2	3689	3.718271222049	0
2	3689	3.718271222049	0
2	3689	3.718271222049	0.005
2	3691	3.718271222049	0
2	3691	3.718271222049	0.075
2	3696	3.719204555383	0.005
2	3696	3.719204555383	0.005
2	3701	3.723271222049	0
2	3701	3.723271222049	5e-06
2	3701	3.723271222049	5e-06
2	3704	3.733271222049	0
2	3704	3.733271222049	0
2	3704	3.733271222049	0.005
2	3706	3.733271222049	0
2	3706	3.733271222049	0.075
2	3711	3.734204555383	0.005
2	3711	3.734204555383	0.005
2	3716	3.738271222049	0
2	3716	3.738271222049	5e-06
2	3716	3.738271222049	5e-06
2	3719	3.748271222049	0
2	3719	3.748271222049	0
2	3719	3.748271222049	0.005
2	3721	3.748271222049	0
2	3721	3.748271222049	0.075
2	3726	3.749204555383	0.005
2	3726	3.749204555383	0.005
2	3731	3.753271222049	0
2	3731	3.753271222049	5e-06
2	3731	3.753271222049	5e-06
2	3734	3.763271222049	0
2	3734	3.763271222049	0
2	3734	3.763271222049	0.005
2	3736	3.763271222049	0
2	3736	3.763271222049	0.075
2	3741	3.764204555383	0.005
2	3741	3.764204555383	0.005
2	3746	3.768271222049	0
2	3746	3.768271222049	5e-06
2	3746	3.768271222049	5e-06
2	3750	3.778271222049	0
2	3750	3.778271222049	0
2	3750	3.778271222049	0.005
2	3752	3.778271222049	0
2	3752	3.778271222049	0.075
2	3757	3.779204555383	0.005
2	3757	3.779204555383	0.005
2	3763	3.783271222049	0
2	3763	3.783271222049	5e-06
2	3763	3.783271222049	5e-06
2	3766	3.793271222049	0
2	3766	3.793271222049	0
2	3766	3.793271222049	0.005
2	3768	3.793271222049	0
2	3768	3.793271222049	0.075
2	3773	3.794204555383	0.005
2	3773	3.794204555383	0.005
2	3778	3.798271222049	0
2	3778	3.798271222049	5e-06
2	3778	3.798271222049	5e-06
2	3781	3.808271222049	0
2	3781	3.808271222049	0
2	3781	3.808271222049	0.005
2	3783	3.808271222049	0
2	3783	3.808271222049	0.075
2	3788	3.809204555383	0.005
2	3788	3.809204555383	0.005
2	3793	3.813271222049	0
2	3793	3.813271222049	5e-06
2	3793	3.813271222049	5e-06
2	3796	3.823271222049	0
2	3796	3.823271222049	0
2	3796	3.823271222049	0.005
2	3798	3.823271222049	0
2	3798	3.823271222049	0.075
2	3803	3.824204555383	0.005
2	3803	3.824204555383	0.005
2	3812	3.828271222049	0
2	3812	3.828271222049	5e-06
2	3812	3.828271222049	5e-06
2	3815	3.838271222049	0
2	3815	3.838271222049	0
2	3815	3.838271222049	0.005
2	3817	3.838271222049	0
2	3817	3.838271222049	0.075
2	3822	3.839204555383	0.005
2	3822	3.839204555383	0.005
2	3827	3.843271222049	0
2	3827	3.843271222049	5e-06
2	3827	3.843271222049	5e-06
2	3830	3.853271222049	0
2	3830	3.853271222049	0
2	3830	3.853271222049	0.005
2	3832	3.853271222049	0
2	3832	3.853271222049	0.075
2	3837	3.854204555383	0.005
2	3837	3.854204555383	0.005
2	3842	3.858271222049	0
2	3842	3.858271222049	5e-06
2	3842	3.858271222049	5e-06
2	3845	3.868271222049	0
2	3845	3.868271222049	0
2	3845	3.868271222049	0.005
2	3847	3.868271222049	0
2	3847	3.868271222049	0.075
2	3852	3.869204555383	0.005
2	3852	3.869204555383	0.005
2	3857	3.873271222049	0
2	3857	3.873271222049	5e-06
2	3857	3.873271222049	5e-06
2	3860	3.883271222049	0
2	3860	3.883271222049	0
2	3860	3.883271222049	0.005
2	3862	3.883271222049	0
2	3862	3.883271222049	0.075
2	3867	3.884204555383	0.005
2	3867	3.884204555383	0.005
2	3872	3.888271222049	0
2	3872	3.888271222049	5e-06
2	3872	3.888271222049	5e-06
2	3875	3.898271222049	0
2	3875	3.898271222049	0
2	3875	3.898271222049	0.005
2	3877	3.898271222049	0
2	3877	3.898271222049	0.075
2	3882	3.899204555383	0.005
2	3882	3.899204555383	0.005
2	3887	3.903271222049	0
2	3887	3.903271222049	5e-06
2	3887	3.903271222049	5e-06
2	3890	3.913271222049	0
2	3890	3.913271222049	0
2	3890	3.913271222049	0.005
2	3892	3.913271222049	0
2	3892	3.913271222049	0.075
2	3897	3.914204555383	0.005
2	3897	3.914204555383	0.005
2	3902	3.918271222049	0
2	3902	3.918271222049	5e-06
2	3902	3.918271222049	5e-06
2	3905	3.928271222049	0
2	3905	3.928271222049	0
2	3905	3.928271222049	0.005
2	3907	3.928271222049	0
2	3907	3.928271222049	0.075
2	3912	3.929204555383	0.005
2	3912	3.929204555383	0.005
2	3917	3.933271222049	0
2	3917	3.933271222049	5e-06
2	3917	3.933271222049	5e-06
2	3920	3.943271222049	0
2	3920	3.943271222049	0
2	3920	3.943271222049	0.005
2	3922	3.943271222049	0
2	3922	3.943271222049	0.075
2	3927	3.944204555383	0.005
2	3927	3.944204555383	0.005
2	3932	3.948271222049	0
2	3932	3.948271222049	5e-06
2	3932	3.948271222049	5e-06
2	3935	3.958271222049	0
2	3935	3.958271222049	0
2	3935	3.958271222049	0.005
2	3937	3.958271222049	0
2	3937	3.958271222049	0.075
2	3942	3.959204555383	0.005
2	3942	3.959204555383	0.005
2	3947	3.963271222049	0
2	3947	3.963271222049	5e-06
2	3947	3.963271222049	5e-06
2	3950	3.973271222049	0
2	3950	3.973271222049	0
2	3950	3.973271222049	0.005
2	3952	3.973271222049	0
2	3952	3.973271222049	0.075
2	3957	3.974204555383	0.005
2	3957	3.974204555383	0.005
2	3962	3.978271222049	0
2	3962	3.978271222049	5e-06
2	3962	3.978271222049	5e-06
2	3965	3.988271222049	0
2	3965	3.988271222049	0
2	3965	3.988271222049	0.005
2	3967	3.988271222049	0
2	3967	3.988271222049	0.075
2	3972	3.989204555383	0.005
2	3972	3.989204555383	0.005
2	3977	3.993271222049	0
2	3977	3.993271222049	5e-06
2	3977	3.993271222049	5e-06
2	3980	4.003271222049	0
2	3980	4.003271222049	0
2	3980	4.003271222049	0.005
2	3982	4.003271222049	0
2	3982	4.003271222049	0.075
2	3987	4.004204555383	0.005
2	3987	4.004204555383	0.005
2	3992	4.008271222049	0
2	3992	4.008271222049	5e-06
2	3992	4.008271222049	5e-06
2	3995	4.018271222049	0
2	3995	4.018271222049	0
2	3995	4.018271222049	0.005
2	3997	4.018271222049	0
2	3997	4.018271222049	0.075
2	4002	4.019204555383	0.005
2	4002	4.019204555383	0.005
2	4007	4.023271222049	0
2	4007	4.023271222049	5e-06
2	4007	4.023271222049	5e-06
2	4010	4.033271222049	0
2	4010	4.033271222049	0
2	4010	4.033271222049	0.005
2	4012	4.033271222049	0
2	4012	4.033271222049	0.075
2	4017	4.034204555383	0.005
2	4017	4.034204555383	0.005
2	4022	4.038271222049	0
2	4022	4.038271222049	5e-06
2	4022	4.038271222049	5e-06
2	4025	4.048271222049	0
2	4025	4.048271222049	0
2	4025	4.048271222049	0.005
2	4027	4.048271222049	0
2	4027	4.048271222049	0.075
2	4032	4.049204555383	0.005
2	4032	4.049204555383	0.005
2	4037	4.053271222049	0
2	4037	4.053271222049	5e-06
2	4037	4.053271222049	5e-06
2	4040	4.063271222049	0
2	4040	4.063271222049	0
2	4040	4.063271222049	0.005
2	4042	4.063271222049	0
2	4042	4.063271222049	0.075
2	4047	4.064204555383	0.005
2	4047	4.064204555383	0.005
2	4052	4.068271222049	0
2	4052	4.068271222049	5e-06
2	4052	4.068271222049	5e-06
2	4055	4.078271222049	0
2	4055	4.078271222049	0
2	4055	4.078271222049	0.005
2	4057	4.078271222049	0
2	4057	4.078271222049	0.075
2	4062	4.079204555383	0.005
2	4062	4.079204555383	0.005
2	4067	4.083271222049	0
2	4067	4.083271222049	5e-06
2	4067	4.083271222049	5e-06
2	4075	4.093271222049	0
2	4075	4.093271222049	0
2	4075	4.093271222049	0.005
2	4077	4.093271222049	0
2	4077	4.093271222049	0.075
2	4082	4.094204555383	0.005
2	4082	4.094204555383	0.005
2	4088	4.098271222049	0
2	4088	4.098271222049	5e-06
2	4088	4.098271222049	5e-06
2	4091	4.108271222049	0
2	4091	4.108271222049	0
2	4091	4.108271222049	0.005
2	4093	4.108271222049	0
2	4093	4.108271222049	0.075
2	4098	4.109204555383	0.005
2	4098	4.109204555383	0.005
2	4103	4.113271222049	0
2	4103	4.113271222049	5e-06
2	4103	4.113271222049	5e-06
2	4106	4.123271222049	0
2	4106	4.123271222049	0
2	4106	4.123271222049	0.005
2	4108	4.123271222049	0
2	4108	4.123271222049	0.075
2	4113	4.124204555383	0.005
2	4113	4.124204555383	0.005
2	4118	4.128271222049	0
2	4118	4.128271222049	5e-06
2	4118	4.128271222049	5e-06
2	4121	4.138271222049	0
2	4121	4.138271222049	0
2	4121	4.138271222049	0.005
2	4123	4.138271222049	0
2	4123	4.138271222049	0.075
2	4128	4.139204555383	0.005
2	4128	4.139204555383	0.005
2	4133	4.143271222049	0
2	4133	4.143271222049	5e-06
2	4133	4.143271222049	5e-06
2	4136	4.153271222049	0
2	4136	4.153271222049	0
2	4136	4.153271222049	0.005
2	4138	4.153271222049	0
2	4138	4.153271222049	0.075
2	4143	4.154204555383	0.005
2	4143	4.154204555383	0.005
2	4148	4.158271222049	0
2	4148	4.158271222049	5e-06
2	4148	4.158271222049	5e-06
2	4151	4.168271222049	0
2	4151	4.168271222049	0
2	4151	4.168271222049	0.005
2	4153	4.168271222049	0
2	4153	4.168271222049	0.075
2	4158	4.169204555383	0.005
2	4158	4.169204555383	0.005
2	4163	4.173271222049	0
2	4163	4.173271222049	5e-06
2	4163	4.173271222049	5e-06
2	4166	4.183271222049	0
2	4166	4.183271222049	0
2	4166	4.183271222049	0.005
2	4168	4.183271222049	0
2	4168	4.183271222049	0.075
2	4173	4.184204555383	0.005
2	4173	4.184204555383	0.005
2	4178	4.188271222049	0
2	4178	4.188271222049	5e-06
2	4178	4.188271222049	5e-06
2	4181	4.198271222049	0
2	4181	4.198271222049	0
2	4181	4.198271222049	0.005
2	4183	4.198271222049	0
2	4183	4.198271222049	0.075
2	4188	4.199204555383	0.005
2	4188	4.199204555383	0.005
2	4193	4.203271222049	0
2	4193	4.203271222049	5e-06
2	4193	4.203271222049	5e-06
2	4196	4.213271222049	0
2	4196	4.213271222049	0
2	4196	4.213271222049	0.005
2	4198	4.213271222049	0
2	4198	4.213271222049	0.075
2	4203	4.214204555383	0.005
2	4203	4.214204555383	0.005
2	4208	4.218271222049	0
2	4208	4.218271222049	5e-06
2	4208	4.218271222049	5e-06
2	4211	4.228271222049	0
2	4211	4.228271222049	0
2	4211	4.228271222049	0.005
2	4213	4.228271222049	0
2	4213	4.228271222049	0.075
2	4218	4.229204555383	0.005
2	4218	4.229204555383	0.005
2	4223	4.233271222049	0
2	4223	4.233271222049	5e-06
2	4223	4.233271222049	5e-06
2	4226	4.243271222049	0
2	4226	4.243271222049	0
2	4226	4.243271222049	0.005
2	4228	4.243271222049	0
2	4228	4.243271222049	0.075
2	4233	4.244204555383	0.005
2	4233	4.244204555383	0.005
2	4238	4.248271222049	0
2	4238	4.248271222049	5e-06
2	4238	4.248271222049	5e-06
2	4241	4.258271222049	0
2	4241	4.258271222049	0
2	4241	4.258271222049	0.005
2	4243	4.258271222049	0
2	4243	4.258271222049	0.075
2	4248	4.259204555383	0.005
2	4248	4.259204555383	0.005
2	4253	4.263271222049	0
2	4253	4.263271222049	5e-06
2	4253	4.263271222049	5e-06
2	4256	4.273271222049	0
2	4256	4.273271222049	0
2	4256	4.273271222049	0.005
2	4258	4.273271222049	0
2	4258	4.273271222049	0.075
2	4263	4.274204555383	0.005
2	4263	4.274204555383	0.005
2	4268	4.278271222049	0
2	4268	4.278271222049	5e-06
2	4268	4.278271222049	5e-06
2	4271	4.288271222049	0
2	4271	4.288271222049	0
2	4271	4.288271222049	0.005
2	4273	4.288271222049	0
2	4273	4.288271222049	0.075
2	4278	4.289204555383	0.005
2	4278	4.289204555383	0.005
2	4283	4.293271222049	0
2	4283	4.293271222049	5e-06
2	4283	4.293271222049	5e-06
2	4286	4.303271222049	0
2	4286	4.303271222049	0
2	4286	4.303271222049	0.005
2	4288	4.303271222049	0
2	4288	4.303271222049	0.075
2	4293	4.304204555383	0.005
2	4293	4.304204555383	0.005
2	4298	4.308271222049	0
2	4298	4.308271222049	5e-06
2	4298	4.308271222049	5e-06
2	4301	4.318271222049	0
2	4301	4.318271222049	0
2	4301	4.318271222049	0.005
2	4303	4.318271222049	0
2	4303	4.318271222049	0.075
2	4308	4.319204555383	0.005
2	4308	4.319204555383	0.005
2	4313	4.323271222049	0
2	4313	4.323271222049	5e-06
2	4313	4.323271222049	5e-06
[...]
10	90427	48.997931856316	0.05
10	90433	48.99886518965	5e-06
10	90433	48.99886518965	5e-06
10	90438	48.999625500815	0
10	90438	48.999625500815	0
10	90438	48.999625500815	0.005
10	90440	48.999625500815	0
10	90440	48.999625500815	0.075
10	90452	49.000558834149	0.005
10	90452	49.000558834149	0.005
10	90478	49.004625500815	0
10	90478	49.004625500815	5e-06
10	90478	49.004625500815	5e-06
10	90492	49.012931856316	0
10	90492	49.012931856316	0.05
10	90498	49.01386518965	5e-06
10	90498	49.01386518965	5e-06
10	90503	49.014625500815	0
10	90503	49.014625500815	0
10	90503	49.014625500815	0.005
10	90505	49.014625500815	0
10	90505	49.014625500815	0.075
10	90517	49.015558834149	0.005
10	90517	49.015558834149	0.005
10	90543	49.019625500815	0
10	90543	49.019625500815	5e-06
10	90543	49.019625500815	5e-06
10	90557	49.027931856316	0
10	90557	49.027931856316	0.05
10	90563	49.02886518965	5e-06
10	90563	49.02886518965	5e-06
10	90568	49.029625500815	0
10	90568	49.029625500815	0
10	90568	49.029625500815	0.005
10	90570	49.029625500815	0
10	90570	49.029625500815	0.075
10	90582	49.030558834149	0.005
10	90582	49.030558834149	0.005
10	90608	49.034625500815	0
10	90608	49.034625500815	5e-06
10	90608	49.034625500815	5e-06
10	90622	49.042931856316	0
10	90622	49.042931856316	0.05
10	90628	49.04386518965	5e-06
10	90628	49.04386518965	5e-06
10	90633	49.044625500815	0
10	90633	49.044625500815	0
10	90633	49.044625500815	0.005
10	90635	49.044625500815	0
10	90635	49.044625500815	0.075
10	90647	49.045558834149	0.005
10	90647	49.045558834149	0.005
10	90673	49.049625500815	0
10	90673	49.049625500815	5e-06
10	90673	49.049625500815	5e-06
10	90687	49.057931856316	0
10	90687	49.057931856316	0.05
10	90693	49.05886518965	5e-06
10	90693	49.05886518965	5e-06
10	90698	49.059625500815	0
10	90698	49.059625500815	0
10	90698	49.059625500815	0.005
10	90700	49.059625500815	0
10	90700	49.059625500815	0.075
10	90712	49.060558834149	0.005
10	90712	49.060558834149	0.005
10	90738	49.064625500815	0
10	90738	49.064625500815	5e-06
10	90738	49.064625500815	5e-06
10	90752	49.072931856316	0
10	90752	49.072931856316	0.05
10	90758	49.07386518965	5e-06
10	90758	49.07386518965	5e-06
10	90763	49.074625500815	0
10	90763	49.074625500815	0
10	90763	49.074625500815	0.005
10	90765	49.074625500815	0
10	90765	49.074625500815	0.075
10	90777	49.075558834149	0.005
10	90777	49.075558834149	0.005
10	90803	49.079625500815	0
10	90803	49.079625500815	5e-06
10	90803	49.079625500815	5e-06
10	90817	49.087931856316	0
10	90817	49.087931856316	0.05
10	90823	49.08886518965	5e-06
10	90823	49.08886518965	5e-06
10	90828	49.089625500815	0
10	90828	49.089625500815	0
10	90828	49.089625500815	0.005
10	90830	49.089625500815	0
10	90830	49.089625500815	0.075
10	90842	49.090558834149	0.005
10	90842	49.090558834149	0.005
10	90868	49.094625500815	0
10	90868	49.094625500815	5e-06
10	90868	49.094625500815	5e-06
10	90882	49.102931856316	0
10	90882	49.102931856316	0.05
10	90888	49.10386518965	5e-06
10	90888	49.10386518965	5e-06
10	90893	49.104625500815	0
10	90893	49.104625500815	0
10	90893	49.104625500815	0.005
10	90895	49.104625500815	0
10	90895	49.104625500815	0.075
10	90907	49.105558834149	0.005
10	90907	49.105558834149	0.005
10	90933	49.109625500815	0
10	90933	49.109625500815	5e-06
10	90933	49.109625500815	5e-06
10	90947	49.117931856316	0
10	90947	49.117931856316	0.05
10	90953	49.11886518965	5e-06
10	90953	49.11886518965	5e-06
10	90958	49.119625500815	0
10	90958	49.119625500815	0
10	90958	49.119625500815	0.005
10	90960	49.119625500815	0
10	90960	49.119625500815	0.075
10	90972	49.120558834149	0.005
10	90972	49.120558834149	0.005
10	90998	49.124625500815	0
10	90998	49.124625500815	5e-06
10	90998	49.124625500815	5e-06
10	91012	49.132931856316	0
10	91012	49.132931856316	0.05
10	91018	49.13386518965	5e-06
10	91018	49.13386518965	5e-06
10	91023	49.134625500815	0
10	91023	49.134625500815	0
10	91023	49.134625500815	0.005
10	91025	49.134625500815	0
10	91025	49.134625500815	0.075
10	91037	49.135558834149	0.005
10	91037	49.135558834149	0.005
10	91063	49.139625500815	0
10	91063	49.139625500815	5e-06
10	91063	49.139625500815	5e-06
10	91077	49.147931856316	0
10	91077	49.147931856316	0.05
10	91083	49.14886518965	5e-06
10	91083	49.14886518965	5e-06
10	91088	49.149625500815	0
10	91088	49.149625500815	0
10	91088	49.149625500815	0.005
10	91090	49.149625500815	0
10	91090	49.149625500815	0.075
10	91102	49.150558834149	0.005
10	91102	49.150558834149	0.005
10	91128	49.154625500815	0
10	91128	49.154625500815	5e-06
10	91128	49.154625500815	5e-06
10	91142	49.162931856316	0
10	91142	49.162931856316	0.05
10	91148	49.16386518965	5e-06
10	91148	49.16386518965	5e-06
10	91153	49.164625500815	0
10	91153	49.164625500815	0
10	91153	49.164625500815	0.005
10	91155	49.164625500815	0
10	91155	49.164625500815	0.075
10	91167	49.165558834149	0.005
10	91167	49.165558834149	0.005
10	91193	49.169625500815	0
10	91193	49.169625500815	5e-06
10	91193	49.169625500815	5e-06
10	91207	49.177931856316	0
10	91207	49.177931856316	0.05
10	91213	49.17886518965	5e-06
10	91213	49.17886518965	5e-06
10	91218	49.179625500815	0
10	91218	49.179625500815	0
10	91218	49.179625500815	0.005
10	91220	49.179625500815	0
10	91220	49.179625500815	0.075
10	91232	49.180558834149	0.005
10	91232	49.180558834149	0.005
10	91258	49.184625500815	0
10	91258	49.184625500815	5e-06
10	91258	49.184625500815	5e-06
10	91272	49.192931856316	0
10	91272	49.192931856316	0.05
10	91278	49.19386518965	5e-06
10	91278	49.19386518965	5e-06
10	91283	49.194625500815	0
10	91283	49.194625500815	0
10	91283	49.194625500815	0.005
10	91285	49.194625500815	0
10	91285	49.194625500815	0.075
10	91297	49.195558834149	0.005
10	91297	49.195558834149	0.005
10	91323	49.199625500815	0
10	91323	49.199625500815	5e-06
10	91323	49.199625500815	5e-06
10	91337	49.207931856316	0
10	91337	49.207931856316	0.05
10	91343	49.20886518965	5e-06
10	91343	49.20886518965	5e-06
10	91348	49.209625500815	0
10	91348	49.209625500815	0
10	91348	49.209625500815	0.005
10	91350	49.209625500815	0
10	91350	49.209625500815	0.075
10	91362	49.210558834149	0.005
10	91362	49.210558834149	0.005
10	91388	49.214625500815	0
10	91388	49.214625500815	5e-06
10	91388	49.214625500815	5e-06
10	91402	49.222931856316	0
10	91402	49.222931856316	0.05
10	91408	49.22386518965	5e-06
10	91408	49.22386518965	5e-06
10	91413	49.224625500815	0
10	91413	49.224625500815	0
10	91413	49.224625500815	0.005
10	91415	49.224625500815	0
10	91415	49.224625500815	0.075
10	91427	49.225558834149	0.005
10	91427	49.225558834149	0.005
10	91453	49.229625500815	0
10	91453	49.229625500815	5e-06
10	91453	49.229625500815	5e-06
10	91467	49.237931856316	0
10	91467	49.237931856316	0.05
10	91473	49.23886518965	5e-06
10	91473	49.23886518965	5e-06
10	91478	49.239625500815	0
10	91478	49.239625500815	0
10	91478	49.239625500815	0.005
10	91480	49.239625500815	0
10	91480	49.239625500815	0.075
10	91492	49.240558834149	0.005
10	91492	49.240558834149	0.005
10	91518	49.244625500815	0
10	91518	49.244625500815	5e-06
10	91518	49.244625500815	5e-06
10	91532	49.252931856316	0
10	91532	49.252931856316	0.05
10	91538	49.25386518965	5e-06
10	91538	49.25386518965	5e-06
10	91543	49.254625500815	0
10	91543	49.254625500815	0
10	91543	49.254625500815	0.005
10	91545	49.254625500815	0
10	91545	49.254625500815	0.075
10	91557	49.255558834149	0.005
10	91557	49.255558834149	0.005
10	91583	49.259625500815	0
10	91583	49.259625500815	5e-06
10	91583	49.259625500815	5e-06
10	91597	49.267931856316	0
10	91597	49.267931856316	0.05
10	91603	49.26886518965	5e-06
10	91603	49.26886518965	5e-06
10	91608	49.269625500815	0
10	91608	49.269625500815	0
10	91608	49.269625500815	0.005
10	91610	49.269625500815	0
10	91610	49.269625500815	0.075
10	91622	49.270558834149	0.005
10	91622	49.270558834149	0.005
10	91652	49.274625500815	0
10	91652	49.274625500815	5e-06
10	91652	49.274625500815	5e-06
10	91666	49.282931856316	0
10	91666	49.282931856316	0.05
10	91672	49.28386518965	5e-06
10	91672	49.28386518965	5e-06
10	91677	49.284625500815	0
10	91677	49.284625500815	0
10	91677	49.284625500815	0.005
10	91679	49.284625500815	0
10	91679	49.284625500815	0.075
10	91691	49.285558834149	0.005
10	91691	49.285558834149	0.005
10	91717	49.289625500815	0
10	91717	49.289625500815	5e-06
10	91717	49.289625500815	5e-06
10	91731	49.297931856316	0
10	91731	49.297931856316	0.05
10	91737	49.29886518965	5e-06
10	91737	49.29886518965	5e-06
10	91742	49.299625500815	0
10	91742	49.299625500815	0
10	91742	49.299625500815	0.005
10	91744	49.299625500815	0
10	91744	49.299625500815	0.075
10	91756	49.300558834149	0.005
10	91756	49.300558834149	0.005
10	91782	49.304625500815	0
10	91782	49.304625500815	5e-06
10	91782	49.304625500815	5e-06
10	91796	49.312931856316	0
10	91796	49.312931856316	0.05
10	91802	49.31386518965	5e-06
10	91802	49.31386518965	5e-06
10	91807	49.314625500815	0
10	91807	49.314625500815	0
10	91807	49.314625500815	0.005
10	91809	49.314625500815	0
10	91809	49.314625500815	0.075
10	91821	49.315558834149	0.005
10	91821	49.315558834149	0.005
10	91847	49.319625500815	0
10	91847	49.319625500815	5e-06
10	91847	49.319625500815	5e-06
10	91861	49.327931856316	0
10	91861	49.327931856316	0.05
10	91867	49.32886518965	5e-06
10	91867	49.32886518965	5e-06
10	91872	49.329625500815	0
10	91872	49.329625500815	0
10	91872	49.329625500815	0.005
10	91874	49.329625500815	0
10	91874	49.329625500815	0.075
10	91886	49.330558834149	0.005
10	91886	49.330558834149	0.005
10	91912	49.334625500815	0
10	91912	49.334625500815	5e-06
10	91912	49.334625500815	5e-06
10	91926	49.342931856316	0
10	91926	49.342931856316	0.05
10	91932	49.34386518965	5e-06
10	91932	49.34386518965	5e-06
10	91937	49.344625500815	0
10	91937	49.344625500815	0
10	91937	49.344625500815	0.005
10	91939	49.344625500815	0
10	91939	49.344625500815	0.075
10	91951	49.345558834149	0.005
10	91951	49.345558834149	0.005
10	91977	49.349625500815	0
10	91977	49.349625500815	5e-06
10	91977	49.349625500815	5e-06
10	91991	49.357931856316	0
10	91991	49.357931856316	0.05
10	91997	49.35886518965	5e-06
10	91997	49.35886518965	5e-06
10	92002	49.359625500815	0
10	92002	49.359625500815	0
10	92002	49.359625500815	0.005
10	92004	49.359625500815	0
10	92004	49.359625500815	0.075
10	92016	49.360558834149	0.005
10	92016	49.360558834149	0.005
10	92042	49.364625500815	0
10	92042	49.364625500815	5e-06
10	92042	49.364625500815	5e-06
10	92056	49.372931856316	0
10	92056	49.372931856316	0.05
10	92062	49.37386518965	5e-06
10	92062	49.37386518965	5e-06
10	92067	49.374625500815	0
10	92067	49.374625500815	0
10	92067	49.374625500815	0.005
10	92069	49.374625500815	0
10	92069	49.374625500815	0.075
10	92081	49.375558834149	0.005
10	92081	49.375558834149	0.005
10	92107	49.379625500815	0
10	92107	49.379625500815	5e-06
10	92107	49.379625500815	5e-06
10	92125	49.387931856316	0
10	92125	49.387931856316	0.05
10	92131	49.38886518965	5e-06
10	92131	49.38886518965	5e-06
10	92136	49.389625500815	0
10	92136	49.389625500815	0
10	92136	49.389625500815	0.005
10	92138	49.389625500815	0
10	92138	49.389625500815	0.075
10	92150	49.390558834149	0.005
10	92150	49.390558834149	0.005
10	92176	49.394625500815	0
10	92176	49.394625500815	5e-06
10	92176	49.394625500815	5e-06
10	92190	49.402931856316	0
10	92190	49.402931856316	0.05
10	92196	49.40386518965	5e-06
10	92196	49.40386518965	5e-06
10	92201	49.404625500815	0
10	92201	49.404625500815	0
10	92201	49.404625500815	0.005
10	92203	49.404625500815	0
10	92203	49.404625500815	0.075
10	92215	49.405558834149	0.005
10	92215	49.405558834149	0.005
10	92241	49.409625500815	0
10	92241	49.409625500815	5e-06
10	92241	49.409625500815	5e-06
10	92255	49.417931856316	0
10	92255	49.417931856316	0.05
10	92261	49.41886518965	5e-06
10	92261	49.41886518965	5e-06
10	92266	49.419625500815	0
10	92266	49.419625500815	0
10	92266	49.419625500815	0.005
10	92268	49.419625500815	0
10	92268	49.419625500815	0.075
10	92280	49.420558834149	0.005
10	92280	49.420558834149	0.005
10	92306	49.424625500815	0
10	92306	49.424625500815	5e-06
10	92306	49.424625500815	5e-06
10	92320	49.432931856316	0
10	92320	49.432931856316	0.05
10	92326	49.43386518965	5e-06
10	92326	49.43386518965	5e-06
10	92331	49.434625500815	0
10	92331	49.434625500815	0
10	92331	49.434625500815	0.005
10	92333	49.434625500815	0
10	92333	49.434625500815	0.075
10	92345	49.435558834149	0.005
10	92345	49.435558834149	0.005
10	92371	49.439625500815	0
10	92371	49.439625500815	5e-06
10	92371	49.439625500815	5e-06
10	92385	49.447931856316	0
10	92385	49.447931856316	0.05
10	92391	49.44886518965	5e-06
10	92391	49.44886518965	5e-06
10	92396	49.449625500815	0
10	92396	49.449625500815	0
10	92396	49.449625500815	0.005
10	92398	49.449625500815	0
10	92398	49.449625500815	0.075
10	92410	49.450558834149	0.005
10	92410	49.450558834149	0.005
10	92436	49.454625500815	0
10	92436	49.454625500815	5e-06
10	92436	49.454625500815	5e-06
10	92450	49.462931856316	0
10	92450	49.462931856316	0.05
10	92456	49.46386518965	5e-06
10	92456	49.46386518965	5e-06
10	92461	49.464625500815	0
10	92461	49.464625500815	0
10	92461	49.464625500815	0.005
10	92463	49.464625500815	0
10	92463	49.464625500815	0.075
10	92475	49.465558834149	0.005
10	92475	49.465558834149	0.005
10	92501	49.469625500815	0
10	92501	49.469625500815	5e-06
10	92501	49.469625500815	5e-06
10	92515	49.477931856316	0
10	92515	49.477931856316	0.05
10	92521	49.47886518965	5e-06
10	92521	49.47886518965	5e-06
10	92526	49.479625500815	0
10	92526	49.479625500815	0
10	92526	49.479625500815	0.005
10	92528	49.479625500815	0
10	92528	49.479625500815	0.075
10	92540	49.480558834149	0.005
10	92540	49.480558834149	0.005
10	92566	49.484625500815	0
10	92566	49.484625500815	5e-06
10	92566	49.484625500815	5e-06
10	92580	49.492931856316	0
10	92580	49.492931856316	0.05
10	92586	49.49386518965	5e-06
10	92586	49.49386518965	5e-06
10	92591	49.494625500815	0
10	92591	49.494625500815	0
10	92591	49.494625500815	0.005
10	92593	49.494625500815	0
10	92593	49.494625500815	0.075
10	92605	49.495558834149	0.005
10	92605	49.495558834149	0.005
10	92631	49.499625500815	0
10	92631	49.499625500815	5e-06
10	92631	49.499625500815	5e-06
10	92645	49.507931856316	0
10	92645	49.507931856316	0.05
10	92651	49.50886518965	5e-06
10	92651	49.50886518965	5e-06
10	92656	49.509625500815	0
10	92656	49.509625500815	0
10	92656	49.509625500815	0.005
10	92658	49.509625500815	0
10	92658	49.509625500815	0.075
10	92670	49.510558834149	0.005
10	92670	49.510558834149	0.005
10	92696	49.514625500815	0
10	92696	49.514625500815	5e-06
10	92696	49.514625500815	5e-06
10	92710	49.522931856316	0
10	92710	49.522931856316	0.05
10	92716	49.52386518965	5e-06
10	92716	49.52386518965	5e-06
10	92721	49.524625500815	0
10	92721	49.524625500815	0
10	92721	49.524625500815	0.005
10	92723	49.524625500815	0
10	92723	49.524625500815	0.075
10	92735	49.525558834149	0.005
10	92735	49.525558834149	0.005
10	92761	49.529625500815	0
10	92761	49.529625500815	5e-06
10	92761	49.529625500815	5e-06
10	92775	49.537931856316	0
10	92775	49.537931856316	0.05
10	92781	49.53886518965	5e-06
10	92781	49.53886518965	5e-06
10	92786	49.539625500815	0
10	92786	49.539625500815	0
10	92786	49.539625500815	0.005
10	92788	49.539625500815	0
10	92788	49.539625500815	0.075
10	92800	49.540558834149	0.005
10	92800	49.540558834149	0.005
10	92826	49.544625500815	0
10	92826	49.544625500815	5e-06
10	92826	49.544625500815	5e-06
10	92840	49.552931856316	0
10	92840	49.552931856316	0.05
10	92846	49.55386518965	5e-06
10	92846	49.55386518965	5e-06
10	92851	49.554625500815	0
10	92851	49.554625500815	0
10	92851	49.554625500815	0.005
10	92853	49.554625500815	0
10	92853	49.554625500815	0.075
10	92865	49.555558834149	0.005
10	92865	49.555558834149	0.005
10	92891	49.559625500815	0
10	92891	49.559625500815	5e-06
10	92891	49.559625500815	5e-06
10	92905	49.567931856316	0
10	92905	49.567931856316	0.05
10	92911	49.56886518965	5e-06
10	92911	49.56886518965	5e-06
10	92916	49.569625500815	0
10	92916	49.569625500815	0
10	92916	49.569625500815	0.005
10	92918	49.569625500815	0
10	92918	49.569625500815	0.075
10	92930	49.570558834149	0.005
10	92930	49.570558834149	0.005
10	92956	49.574625500815	0
10	92956	49.574625500815	5e-06
10	92956	49.574625500815	5e-06
10	92974	49.582931856316	0
10	92974	49.582931856316	0.05
10	92980	49.58386518965	5e-06
10	92980	49.58386518965	5e-06
10	92985	49.584625500815	0
10	92985	49.584625500815	0
10	92985	49.584625500815	0.005
10	92987	49.584625500815	0
10	92987	49.584625500815	0.075
10	92999	49.585558834149	0.005
10	92999	49.585558834149	0.005
10	93029	49.589625500815	0
10	93029	49.589625500815	5e-06
10	93029	49.589625500815	5e-06
10	93043	49.597931856316	0
10	93043	49.597931856316	0.05
10	93049	49.59886518965	5e-06
10	93049	49.59886518965	5e-06
10	93054	49.599625500815	0
10	93054	49.599625500815	0
10	93054	49.599625500815	0.005
10	93056	49.599625500815	0
10	93056	49.599625500815	0.075
10	93068	49.600558834149	0.005
10	93068	49.600558834149	0.005
10	93094	49.604625500815	0
10	93094	49.604625500815	5e-06
10	93094	49.604625500815	5e-06
10	93108	49.612931856316	0
10	93108	49.612931856316	0.05
10	93114	49.61386518965	5e-06
10	93114	49.61386518965	5e-06
10	93119	49.614625500815	0
10	93119	49.614625500815	0
10	93119	49.614625500815	0.005
10	93121	49.614625500815	0
10	93121	49.614625500815	0.075
10	93133	49.615558834149	0.005
10	93133	49.615558834149	0.005
10	93159	49.619625500815	0
10	93159	49.619625500815	5e-06
10	93159	49.619625500815	5e-06
10	93173	49.627931856316	0
10	93173	49.627931856316	0.05
10	93179	49.62886518965	5e-06
10	93179	49.62886518965	5e-06
10	93184	49.629625500815	0
10	93184	49.629625500815	0
10	93184	49.629625500815	0.005
10	93186	49.629625500815	0
10	93186	49.629625500815	0.075
10	93198	49.630558834149	0.005
10	93198	49.630558834149	0.005
10	93224	49.634625500815	0
10	93224	49.634625500815	5e-06
10	93224	49.634625500815	5e-06
10	93238	49.642931856316	0
10	93238	49.642931856316	0.05
10	93244	49.64386518965	5e-06
10	93244	49.64386518965	5e-06
10	93249	49.644625500815	0
10	93249	49.644625500815	0
10	93249	49.644625500815	0.005
10	93251	49.644625500815	0
10	93251	49.644625500815	0.075
10	93263	49.645558834149	0.005
10	93263	49.645558834149	0.005
10	93289	49.649625500815	0
10	93289	49.649625500815	5e-06
10	93289	49.649625500815	5e-06
10	93303	49.657931856316	0
10	93303	49.657931856316	0.05
10	93309	49.65886518965	5e-06
10	93309	49.65886518965	5e-06
10	93314	49.659625500815	0
10	93314	49.659625500815	0
10	93314	49.659625500815	0.005
10	93316	49.659625500815	0
10	93316	49.659625500815	0.075
10	93328	49.660558834149	0.005
10	93328	49.660558834149	0.005
10	93354	49.664625500815	0
10	93354	49.664625500815	5e-06
10	93354	49.664625500815	5e-06
10	93368	49.672931856316	0
10	93368	49.672931856316	0.05
10	93374	49.67386518965	5e-06
10	93374	49.67386518965	5e-06
10	93379	49.674625500815	0
10	93379	49.674625500815	0
10	93379	49.674625500815	0.005
10	93381	49.674625500815	0
10	93381	49.674625500815	0.075
10	93393	49.675558834149	0.005
10	93393	49.675558834149	0.005
10	93419	49.679625500815	0
10	93419	49.679625500815	5e-06
10	93419	49.679625500815	5e-06
10	93433	49.687931856316	0
10	93433	49.687931856316	0.05
10	93439	49.68886518965	5e-06
10	93439	49.68886518965	5e-06
10	93444	49.689625500815	0
10	93444	49.689625500815	0
10	93444	49.689625500815	0.005
10	93446	49.689625500815	0
10	93446	49.689625500815	0.075
10	93458	49.690558834149	0.005
10	93458	49.690558834149	0.005
10	93484	49.694625500815	0
10	93484	49.694625500815	5e-06
10	93484	49.694625500815	5e-06
10	93498	49.702931856316	0
10	93498	49.702931856316	0.05
10	93504	49.70386518965	5e-06
10	93504	49.70386518965	5e-06
10	93509	49.704625500815	0
10	93509	49.704625500815	0
10	93509	49.704625500815	0.005
10	93511	49.704625500815	0
10	93511	49.704625500815	0.075
10	93523	49.705558834149	0.005
10	93523	49.705558834149	0.005
10	93549	49.709625500815	0
10	93549	49.709625500815	5e-06
10	93549	49.709625500815	5e-06
10	93563	49.717931856316	0
10	93563	49.717931856316	0.05
10	93569	49.71886518965	5e-06
10	93569	49.71886518965	5e-06
10	93574	49.719625500815	0
10	93574	49.719625500815	0
10	93574	49.719625500815	0.005
10	93576	49.719625500815	0
10	93576	49.719625500815	0.075
10	93588	49.720558834149	0.005
